Version,
     6.0;

SimulationControl,
     Yes,
     Yes,
     No,
     No,
     Yes;

Building,
     Building,
     30.0,
     City,
     0.04,
     0.4,
     FullExterior,
     25;

SurfaceConvectionAlgorithm:Inside,
     Simple;

SurfaceConvectionAlgorithm:Outside,
     SimpleCombined;

HeatBalanceAlgorithm,
     ConductionTransferFunction;

Timestep,
     4;

Site:Location,
     CHICAGO_IL_USA TMY2-94846,
     41.78,
     -87.75,
     -6.0,
     190.0;

SizingPeriod:DesignDay,
     CHICAGO_IL_USA Annual Heating 99% Design Conditions DB,
     -17.3,
     0.0,
     -17.3,
     99063.0,
     4.9,
     270.0,
     0.0,
     0,
     0,
     21,
     1,
     WinterDesignDay,
     0,
     WetBulb;

SizingPeriod:DesignDay,
     CHICAGO_IL_USA Annual Cooling 1% Design Conditions DB/MCWB,
     31.5,
     10.7,
     23.0,
     99063.0,
     5.3,
     230.0,
     1.0,
     0,
     0,
     21,
     7,
     SummerDesignDay,
     0,
     WetBulb;

RunPeriod,
     ,
     1,
     14,
     1,
     14,
     Tuesday,
     Yes,
     Yes,
     No,
     Yes,
     Yes;

RunPeriod,
     ,
     7,
     7,
     7,
     7,
     Tuesday,
     Yes,
     Yes,
     No,
     Yes,
     Yes;

Site:GroundTemperature:BuildingSurface,
     20.03,
     20.03,
     20.13,
     20.3,
     20.43,
     20.52,
     20.62,
     20.77,
     20.78,
     20.55,
     20.44,
     20.2;

ScheduleTypeLimits,
     Any Number;

ScheduleTypeLimits,
     Fraction,
     0.0,
     1.0,
     CONTINUOUS;

ScheduleTypeLimits,
     Temperature,
     -60,
     200,
     CONTINUOUS,
     Temperature;

ScheduleTypeLimits,
     Control Type,
     0,
     4,
     DISCRETE;

ScheduleTypeLimits,
     On/Off,
     0,
     1,
     DISCRETE;

ScheduleTypeLimits,
     FlowRate,
     0.0,
     10,
     CONTINUOUS;

Schedule:Compact,
     OCCUPY-1,
     Fraction,
     Through: 12/31,
     For: Weekdays SummerDesignDay WinterDesignDay,
     Until: 9:00,
     0.0,
     Until: 12:00,
     1.0,
     Until: 13:00,
     0.8,
     Until: 14:00,
     0.4,
     Until: 15:00,
     0.8,
     Until: 17:00,
     1.0,
     Until: 24:00,
     0.0,
     For: AllOtherDays,
     Until: 24:00,
     0.0;

Schedule:Compact,
     LIGHTS-1,
     Fraction,
     Through: 12/31,
     For: Weekdays SummerDesignDay WinterDesignDay,
     Until: 9:00,
     0.05,
     Until: 10:00,
     0.9,
     Until: 11:00,
     0.95,
     Until: 12:00,
     1.0,
     Until: 13:00,
     0.95,
     Until: 14:00,
     0.8,
     Until: 15:00,
     0.9,
     Until: 17:00,
     1.0,
     Until: 24:00,
     0.05,
     For: AllOtherDays,
     Until: 24:00,
     0.05;

Schedule:Compact,
     EQUIP-1,
     Fraction,
     Through: 12/31,
     For: Weekdays SummerDesignDay WinterDesignDay,
     Until: 9:00,
     0.02,
     Until: 10:00,
     0.4,
     Until: 15:00,
     0.9,
     Until: 16:00,
     0.8,
     Until: 17:00,
     0.7,
     Until: 24:00,
     0.02,
     For: CustomDay1 CustomDay2,
     Until: 9:00,
     0.02,
     Until: 10:00,
     0.4,
     Until: 15:00,
     0.9,
     Until: 16:00,
     0.8,
     Until: 17:00,
     0.7,
     Until: 24:00,
     0.02,
     For: AllOtherDays,
     Until: 24:00,
     0.2;

Schedule:Compact,
     INFIL-SCH,
     Fraction,
     Through: 3/31,
     For: Alldays,
     Until: 24:00,
     1.0,
     Through: 10/31,
     For: Alldays,
     Until: 24:00,
     0.0,
     Through: 12/31,
     For: Alldays,
     Until: 24:00,
     1.0;

Schedule:Compact,
     ActSchd,
     Any Number,
     Through: 12/31,
     For: Alldays,
     Until: 24:00,
     117.239997864;

Schedule:Compact,
     ShadeTransSch,
     Fraction,
     Through: 12/31,
     For: Alldays,
     Until: 24:00,
     0.0;

Schedule:Compact,
     Htg-SetP-Sch,
     Temperature,
     Through: 12/31,
     For: Weekends HoliDay,
     Until: 7:00,
     12.8,
     Until: 14:00,
     21.1,
     Until: 24:00,
     12.8,
     For: SummerDesignDay,
     Until: 24:00,
     21.1,
     For: WinterDesignDay,
     Until: 24:00,
     21.1,
     For: AllOtherDays,
     Until: 7:00,
     12.8,
     Until: 19:00,
     21.1,
     Until: 24:00,
     12.8;

Schedule:Compact,
     Clg-SetP-Sch,
     Temperature,
     Through: 12/31,
     For: Weekends HoliDay,
     Until: 7:00,
     40.0,
     Until: 14:00,
     25.0,
     Until: 24:00,
     32.2,
     For: SummerDesignDay,
     Until: 24:00,
     25.0,
     For: WinterDesignDay,
     Until: 24:00,
     25.0,
     For: AllOtherDays,
     Until: 7:00,
     40.0,
     Until: 19:00,
     25.0,
     Until: 24:00,
     40.0;

Schedule:Compact,
     Zone Control Type Sched,
     Control Type,
     Through: 12/31,
     For: AllDays,
     Until: 24:00,
     4;

Schedule:Compact,
     Min OA Sched,
     Fraction,
     Through: 12/31,
     For: Weekdays SummerDesignDay WinterDesignDay,
     Until: 7:00,
     0.02,
     Until: 19:00,
     1.0,
     Until: 24:00,
     0.02,
     For: AllOtherDays,
     Until: 24:00,
     0.02;

Schedule:Compact,
     FanAvailSched,
     Fraction,
     Through: 3/31,
     For: Alldays,
     Until: 24:00,
     1.0,
     Through: 9/30,
     For: Weekdays,
     Until: 7:00,
     0.0,
     Until: 18:00,
     1.0,
     Until: 24:00,
     0.0,
     For: Weekends Holidays CustomDay1 CustomDay2,
     Until: 24:00,
     0.0,
     For: AllOtherDays,
     Until: 24:00,
     1.0,
     Through: 12/31,
     For: Alldays,
     Until: 24:00,
     1.0;

Schedule:Compact,
     CW Loop Temp Schedule,
     Temperature,
     Through: 12/31,
     For: Alldays,
     Until: 24:00,
     11.0;

Schedule:Compact,
     HW Loop Temp Schedule,
     Temperature,
     Through: 12/31,
     For: Alldays,
     Until: 24:00,
     82.0;

Schedule:Compact,
     PlantOnSched,
     Fraction,
     Through: 12/31,
     For: Alldays,
     Until: 24:00,
     1.0;

Schedule:Compact,
     Seasonal Reset Supply Air Temp Sch,
     Temperature,
     Through: 12/31,
     For: Alldays,
     Until: 24:00,
     17.2;

Schedule:Compact,
     Heating Supply Air Temp Sch,
     Temperature,
     Through: 12/31,
     For: Alldays,
     Until: 24:00,
     10.0;

Schedule:Compact,
     Dehum Supply Air Temp Sch,
     Temperature,
     Through: 12/31,
     For: Alldays,
     Until: 24:00,
     12.0;

Schedule:Compact,
     CoolingCoilAvailSched,
     Fraction,
     Through: 12/31,
     For: Alldays,
     Until: 24:00,
     1.0;

Schedule:Compact,
     CoolingPumpAvailSched,
     Fraction,
     Through: 12/31,
     For: Alldays,
     Until: 24:00,
     1.0;

Schedule:Compact,
     ReheatCoilAvailSched,
     Fraction,
     Through: 3/31,
     For: Alldays,
     Until: 24:00,
     1.0,
     Through: 9/30,
     For: Weekdays,
     Until: 7:00,
     0.0,
     Until: 18:00,
     1.0,
     Until: 24:00,
     0.0,
     For: Weekends Holidays CustomDay1 CustomDay2,
     Until: 24:00,
     0.0,
     For: AllOtherDays,
     Until: 24:00,
     1.0,
     Through: 12/31,
     For: Alldays,
     Until: 24:00,
     1.0;

Schedule:Compact,
     ReportSch,
     On/Off,
     Through: 1/13,
     For: Alldays,
     Until: 24:00,
     0.0,
     Through: 1/14,
     For: Alldays,
     Until: 24:00,
     1.0,
     Through: 7/6,
     For: Alldays,
     Until: 24:00,
     0.0,
     Through: 7/9,
     For: Alldays,
     Until: 24:00,
     1.0,
     Through: 12/31,
     For: Alldays,
     Until: 24:00,
     0.0;

Material,
     WD10,
     MediumSmooth,
     0.667,
     0.115,
     513.0,
     1381.0,
     0.9,
     0.78,
     0.78;

Material,
     RG01,
     Rough,
     0.0127,
     1.442,
     881.0,
     1674.0,
     0.9,
     0.65,
     0.65;

Material,
     BR01,
     VeryRough,
     0.0094999997,
     0.162,
     1121.0,
     1464.0,
     0.9,
     0.7,
     0.7;

Material,
     IN46,
     VeryRough,
     0.076200001,
     0.023,
     24.0,
     1590.0,
     0.9,
     0.5,
     0.5;

Material,
     WD01,
     MediumSmooth,
     0.019099999,
     0.115,
     513.0,
     1381.0,
     0.9,
     0.78,
     0.78;

Material,
     PW03,
     MediumSmooth,
     0.0127,
     0.115,
     545.0,
     1213.0,
     0.9,
     0.78,
     0.78;

Material,
     IN02,
     Rough,
     0.090099998,
     0.043000001,
     10.0,
     837.0,
     0.9,
     0.75,
     0.75;

Material,
     GP01,
     MediumSmooth,
     0.0127,
     0.16,
     801.0,
     837.0,
     0.9,
     0.75,
     0.75;

Material,
     GP02,
     MediumSmooth,
     0.015900001,
     0.16,
     801.0,
     837.0,
     0.9,
     0.75,
     0.75;

Material,
     CC03,
     MediumRough,
     0.1016,
     1.31,
     2243.0,
     837.0,
     0.9,
     0.65,
     0.65;

Material:NoMass,
     CP01,
     Rough,
     0.367,
     0.9,
     0.75,
     0.75;

Material:NoMass,
     MAT-SB-U,
     Rough,
     0.117406666,
     0.65,
     0.65,
     0.65;

Material:NoMass,
     MAT-CLNG-1,
     Rough,
     0.65225929,
     0.65,
     0.65,
     0.65;

Material:NoMass,
     MAT-FLOOR-1,
     Rough,
     3.522199631,
     0.65,
     0.65,
     0.65;

Material:AirGap,
     AL21,
     0.157;

Material:AirGap,
     AL23,
     0.153;

WindowMaterial:Glazing,
     CLEAR 3MM,
     SpectralAverage,
     ,
     0.003,
     0.837,
     0.075,
     0.075,
     0.898,
     0.081,
     0.081,
     0.0,
     0.84,
     0.84,
     0.9;

WindowMaterial:Glazing,
     GREY 3MM,
     SpectralAverage,
     ,
     0.003,
     0.626,
     0.061,
     0.061,
     0.611,
     0.061,
     0.061,
     0.0,
     0.84,
     0.84,
     0.9;

WindowMaterial:Glazing,
     CLEAR 6MM,
     SpectralAverage,
     ,
     0.006,
     0.775,
     0.071,
     0.071,
     0.881,
     0.08,
     0.08,
     0.0,
     0.84,
     0.84,
     0.9;

WindowMaterial:Glazing,
     LoE CLEAR 6MM,
     SpectralAverage,
     ,
     0.006,
     0.6,
     0.17,
     0.22,
     0.84,
     0.055,
     0.078,
     0.0,
     0.84,
     0.1,
     0.9;

WindowMaterial:Gas,
     AIR 6MM,
     Air,
     0.0063;

WindowMaterial:Gas,
     AIR 13MM,
     Air,
     0.0127;

WindowMaterial:Gas,
     ARGON 13MM,
     Argon,
     0.0127;

Construction,
     ROOF-1,
     RG01,
     BR01,
     IN46,
     WD01;

Construction,
     WALL-1,
     WD01,
     PW03,
     IN02,
     GP01;

Construction,
     CLNG-1,
     MAT-CLNG-1;

Construction,
     SB-U,
     MAT-SB-U;

Construction,
     FLOOR-1,
     MAT-FLOOR-1;

Construction,
     FLOOR-SLAB-1,
     CC03;

Construction,
     INT-WALL-1,
     GP02,
     AL21,
     GP02;

Construction,
     Dbl Clr 3mm/13mm Air,
     CLEAR 3MM,
     AIR 13MM,
     CLEAR 3MM;

Construction,
     Dbl Clr 3mm/13mm Arg,
     CLEAR 3MM,
     ARGON 13MM,
     CLEAR 3MM;

Construction,
     Sgl Grey 3mm,
     GREY 3MM;

Construction,
     Dbl Clr 6mm/6mm Air,
     CLEAR 6MM,
     AIR 6MM,
     CLEAR 6MM;

Construction,
     Dbl LoE (e2=.1) Clr 6mm/6mm Air,
     LoE CLEAR 6MM,
     AIR 6MM,
     CLEAR 6MM;

GlobalGeometryRules,
     UpperLeftCorner,
     CounterClockWise,
     relative;

Zone,
     PLENUM-1,
     0.0,
     0.0,
     0.0,
     0.0,
     1,
     1,
     0.609600067,
     283.2;

Zone,
     SPACE1-1,
     0.0,
     0.0,
     0.0,
     0.0,
     1,
     1,
     2.438400269,
     239.247360229;

Zone,
     SPACE2-1,
     0.0,
     0.0,
     0.0,
     0.0,
     1,
     1,
     2.438400269,
     103.311355591;

Zone,
     SPACE3-1,
     0.0,
     0.0,
     0.0,
     0.0,
     1,
     1,
     2.438400269,
     239.247360229;

Zone,
     SPACE4-1,
     0.0,
     0.0,
     0.0,
     0.0,
     1,
     1,
     2.438400269,
     103.311355591;

Zone,
     SPACE5-1,
     0.0,
     0.0,
     0.0,
     0.0,
     1,
     1,
     2.438400269,
     447.682556152;

Zone,
     Sup-PLENUM-1,
     0.0,
     0.0,
     0.0,
     0.0,
     1,
     1,
     0.45,
     208.6;

BuildingSurface:Detailed,
     WALL-1PF,
     WALL,
     WALL-1,
     PLENUM-1,
     Outdoors,
     ,
     SunExposed,
     WindExposed,
     0.5,
     4,
     0.0,
     0.0,
     3.0,
     0.0,
     0.0,
     2.4,
     30.5,
     0.0,
     2.4,
     30.5,
     0.0,
     3.0;

BuildingSurface:Detailed,
     WALL-1PR,
     WALL,
     WALL-1,
     PLENUM-1,
     Outdoors,
     ,
     SunExposed,
     WindExposed,
     0.5,
     4,
     30.5,
     0.0,
     3.0,
     30.5,
     0.0,
     2.4,
     30.5,
     15.2,
     2.4,
     30.5,
     15.2,
     3.0;

BuildingSurface:Detailed,
     WALL-1PB,
     WALL,
     WALL-1,
     PLENUM-1,
     Outdoors,
     ,
     SunExposed,
     WindExposed,
     0.5,
     4,
     30.5,
     15.2,
     3.0,
     30.5,
     15.2,
     2.4,
     0.0,
     15.2,
     2.4,
     0.0,
     15.2,
     3.0;

BuildingSurface:Detailed,
     WALL-1PL,
     WALL,
     WALL-1,
     PLENUM-1,
     Outdoors,
     ,
     SunExposed,
     WindExposed,
     0.5,
     4,
     0.0,
     15.2,
     3.0,
     0.0,
     15.2,
     2.4,
     0.0,
     0.0,
     2.4,
     0.0,
     0.0,
     3.0;

BuildingSurface:Detailed,
     TOP-1,
     ROOF,
     ROOF-1,
     PLENUM-1,
     Outdoors,
     ,
     SunExposed,
     WindExposed,
     0.0,
     4,
     0.0,
     15.2,
     3.0,
     0.0,
     0.0,
     3.0,
     30.5,
     0.0,
     3.0,
     30.5,
     15.2,
     3.0;

BuildingSurface:Detailed,
     C1-1P,
     FLOOR,
     CLNG-1,
     PLENUM-1,
     Surface,
     C1-1,
     NoSun,
     NoWind,
     0.0,
     4,
     26.8,
     3.7,
     2.4,
     30.5,
     0.0,
     2.4,
     0.0,
     0.0,
     2.4,
     3.7,
     3.7,
     2.4;

BuildingSurface:Detailed,
     C2-1P,
     FLOOR,
     CLNG-1,
     PLENUM-1,
     Surface,
     C2-1,
     NoSun,
     NoWind,
     0.0,
     4,
     26.8,
     11.6,
     2.4,
     30.5,
     15.2,
     2.4,
     30.5,
     0.0,
     2.4,
     26.8,
     3.7,
     2.4;

BuildingSurface:Detailed,
     C3-1P,
     FLOOR,
     CLNG-1,
     PLENUM-1,
     Surface,
     C3-1,
     NoSun,
     NoWind,
     0.0,
     4,
     26.8,
     11.6,
     2.4,
     3.7,
     11.6,
     2.4,
     0.0,
     15.2,
     2.4,
     30.5,
     15.2,
     2.4;

BuildingSurface:Detailed,
     C4-1P,
     FLOOR,
     CLNG-1,
     PLENUM-1,
     Surface,
     C4-1,
     NoSun,
     NoWind,
     0.0,
     4,
     3.7,
     3.7,
     2.4,
     0.0,
     0.0,
     2.4,
     0.0,
     15.2,
     2.4,
     3.7,
     11.6,
     2.4;

BuildingSurface:Detailed,
     C5-1P,
     FLOOR,
     CLNG-1,
     PLENUM-1,
     Surface,
     C5-1,
     NoSun,
     NoWind,
     0.0,
     4,
     26.8,
     11.6,
     2.4,
     26.8,
     3.7,
     2.4,
     3.7,
     3.7,
     2.4,
     3.7,
     11.6,
     2.4;

BuildingSurface:Detailed,
     FRONT-1,
     WALL,
     WALL-1,
     SPACE1-1,
     Outdoors,
     ,
     SunExposed,
     WindExposed,
     0.5,
     4,
     0.0,
     0.0,
     2.4,
     0.0,
     0.0,
     0.0,
     30.5,
     0.0,
     0.0,
     30.5,
     0.0,
     2.4;

BuildingSurface:Detailed,
     C1-1,
     CEILING,
     CLNG-1,
     SPACE1-1,
     Surface,
     C1-1P,
     NoSun,
     NoWind,
     0.0,
     4,
     3.7,
     3.7,
     2.4,
     0.0,
     0.0,
     2.4,
     30.5,
     0.0,
     2.4,
     26.8,
     3.7,
     2.4;

BuildingSurface:Detailed,
     F1-1,
     FLOOR,
     CLNG-1,
     SPACE1-1,
     Surface,
     F1-1S,
     NoSun,
     NoWind,
     0.0,
     4,
     26.8,
     3.7,
     0.0,
     30.5,
     0.0,
     0.0,
     0.0,
     0.0,
     0.0,
     3.7,
     3.7,
     0.0;

BuildingSurface:Detailed,
     SB12,
     WALL,
     INT-WALL-1,
     SPACE1-1,
     Surface,
     SB21,
     NoSun,
     NoWind,
     0.0,
     4,
     30.5,
     0.0,
     2.4,
     30.5,
     0.0,
     0.0,
     26.8,
     3.7,
     0.0,
     26.8,
     3.7,
     2.4;

BuildingSurface:Detailed,
     SB14,
     WALL,
     INT-WALL-1,
     SPACE1-1,
     Surface,
     SB41,
     NoSun,
     NoWind,
     0.0,
     4,
     3.7,
     3.7,
     2.4,
     3.7,
     3.7,
     0.0,
     0.0,
     0.0,
     0.0,
     0.0,
     0.0,
     2.4;

BuildingSurface:Detailed,
     SB15,
     WALL,
     INT-WALL-1,
     SPACE1-1,
     Surface,
     SB51,
     NoSun,
     NoWind,
     0.0,
     4,
     26.8,
     3.7,
     2.4,
     26.8,
     3.7,
     0.0,
     3.7,
     3.7,
     0.0,
     3.7,
     3.7,
     2.4;

BuildingSurface:Detailed,
     RIGHT-1,
     WALL,
     WALL-1,
     SPACE2-1,
     Outdoors,
     ,
     SunExposed,
     WindExposed,
     0.5,
     4,
     30.5,
     0.0,
     2.4,
     30.5,
     0.0,
     0.0,
     30.5,
     15.2,
     0.0,
     30.5,
     15.2,
     2.4;

BuildingSurface:Detailed,
     C2-1,
     CEILING,
     CLNG-1,
     SPACE2-1,
     Surface,
     C2-1P,
     NoSun,
     NoWind,
     0.0,
     4,
     26.8,
     3.7,
     2.4,
     30.5,
     0.0,
     2.4,
     30.5,
     15.2,
     2.4,
     26.8,
     11.6,
     2.4;

BuildingSurface:Detailed,
     F2-1,
     FLOOR,
     CLNG-1,
     SPACE2-1,
     Surface,
     F2-1S,
     NoSun,
     NoWind,
     0.0,
     4,
     26.8,
     11.6,
     0.0,
     30.5,
     15.2,
     0.0,
     30.5,
     0.0,
     0.0,
     26.8,
     3.7,
     0.0;

BuildingSurface:Detailed,
     SB21,
     WALL,
     INT-WALL-1,
     SPACE2-1,
     Surface,
     SB12,
     NoSun,
     NoWind,
     0.0,
     4,
     26.8,
     3.7,
     2.4,
     26.8,
     3.7,
     0.0,
     30.5,
     0.0,
     0.0,
     30.5,
     0.0,
     2.4;

BuildingSurface:Detailed,
     SB23,
     WALL,
     INT-WALL-1,
     SPACE2-1,
     Surface,
     SB32,
     NoSun,
     NoWind,
     0.0,
     4,
     30.5,
     15.2,
     2.4,
     30.5,
     15.2,
     0.0,
     26.8,
     11.6,
     0.0,
     26.8,
     11.6,
     2.4;

BuildingSurface:Detailed,
     SB25,
     WALL,
     INT-WALL-1,
     SPACE2-1,
     Surface,
     SB52,
     NoSun,
     NoWind,
     0.0,
     4,
     26.8,
     11.6,
     2.4,
     26.8,
     11.6,
     0.0,
     26.8,
     3.7,
     0.0,
     26.8,
     3.7,
     2.4;

BuildingSurface:Detailed,
     BACK-1,
     WALL,
     WALL-1,
     SPACE3-1,
     Outdoors,
     ,
     SunExposed,
     WindExposed,
     0.5,
     4,
     30.5,
     15.2,
     2.4,
     30.5,
     15.2,
     0.0,
     0.0,
     15.2,
     0.0,
     0.0,
     15.2,
     2.4;

BuildingSurface:Detailed,
     C3-1,
     CEILING,
     CLNG-1,
     SPACE3-1,
     Surface,
     C3-1P,
     NoSun,
     NoWind,
     0.0,
     4,
     30.5,
     15.2,
     2.4,
     0.0,
     15.2,
     2.4,
     3.7,
     11.6,
     2.4,
     26.8,
     11.6,
     2.4;

BuildingSurface:Detailed,
     F3-1,
     FLOOR,
     CLNG-1,
     SPACE3-1,
     Surface,
     F3-1S,
     NoSun,
     NoWind,
     0.0,
     4,
     26.8,
     11.6,
     0.0,
     3.7,
     11.6,
     0.0,
     0.0,
     15.2,
     0.0,
     30.5,
     15.2,
     0.0;

BuildingSurface:Detailed,
     SB32,
     WALL,
     INT-WALL-1,
     SPACE3-1,
     Surface,
     SB23,
     NoSun,
     NoWind,
     0.0,
     4,
     26.8,
     11.6,
     2.4,
     26.8,
     11.6,
     0.0,
     30.5,
     15.2,
     0.0,
     30.5,
     15.2,
     2.4;

BuildingSurface:Detailed,
     SB34,
     WALL,
     INT-WALL-1,
     SPACE3-1,
     Surface,
     SB43,
     NoSun,
     NoWind,
     0.0,
     4,
     0.0,
     15.2,
     2.4,
     0.0,
     15.2,
     0.0,
     3.7,
     11.6,
     0.0,
     3.7,
     11.6,
     2.4;

BuildingSurface:Detailed,
     SB35,
     WALL,
     INT-WALL-1,
     SPACE3-1,
     Surface,
     SB53,
     NoSun,
     NoWind,
     0.0,
     4,
     3.7,
     11.6,
     2.4,
     3.7,
     11.6,
     0.0,
     26.8,
     11.6,
     0.0,
     26.8,
     11.6,
     2.4;

BuildingSurface:Detailed,
     LEFT-1,
     WALL,
     WALL-1,
     SPACE4-1,
     Outdoors,
     ,
     SunExposed,
     WindExposed,
     0.5,
     4,
     0.0,
     15.2,
     2.4,
     0.0,
     15.2,
     0.0,
     0.0,
     0.0,
     0.0,
     0.0,
     0.0,
     2.4;

BuildingSurface:Detailed,
     C4-1,
     CEILING,
     CLNG-1,
     SPACE4-1,
     Surface,
     C4-1P,
     NoSun,
     NoWind,
     0.0,
     4,
     3.7,
     11.6,
     2.4,
     0.0,
     15.2,
     2.4,
     0.0,
     0.0,
     2.4,
     3.7,
     3.7,
     2.4;

BuildingSurface:Detailed,
     F4-1,
     FLOOR,
     CLNG-1,
     SPACE4-1,
     Surface,
     F4-1S,
     NoSun,
     NoWind,
     0.0,
     4,
     3.7,
     3.7,
     0.0,
     0.0,
     0.0,
     0.0,
     0.0,
     15.2,
     0.0,
     3.7,
     11.6,
     0.0;

BuildingSurface:Detailed,
     SB41,
     WALL,
     INT-WALL-1,
     SPACE4-1,
     Surface,
     SB14,
     NoSun,
     NoWind,
     0.0,
     4,
     0.0,
     0.0,
     2.4,
     0.0,
     0.0,
     0.0,
     3.7,
     3.7,
     0.0,
     3.7,
     3.7,
     2.4;

BuildingSurface:Detailed,
     SB43,
     WALL,
     INT-WALL-1,
     SPACE4-1,
     Surface,
     SB34,
     NoSun,
     NoWind,
     0.0,
     4,
     3.7,
     11.6,
     2.4,
     3.7,
     11.6,
     0.0,
     0.0,
     15.2,
     0.0,
     0.0,
     15.2,
     2.4;

BuildingSurface:Detailed,
     SB45,
     WALL,
     INT-WALL-1,
     SPACE4-1,
     Surface,
     SB54,
     NoSun,
     NoWind,
     0.0,
     4,
     3.7,
     3.7,
     2.4,
     3.7,
     3.7,
     0.0,
     3.7,
     11.6,
     0.0,
     3.7,
     11.6,
     2.4;

BuildingSurface:Detailed,
     C5-1,
     CEILING,
     CLNG-1,
     SPACE5-1,
     Surface,
     C5-1P,
     NoSun,
     NoWind,
     0.0,
     4,
     3.7,
     11.6,
     2.4,
     3.7,
     3.7,
     2.4,
     26.8,
     3.7,
     2.4,
     26.8,
     11.6,
     2.4;

BuildingSurface:Detailed,
     F5-1,
     FLOOR,
     CLNG-1,
     SPACE5-1,
     Surface,
     F5-1S,
     NoSun,
     NoWind,
     0.0,
     4,
     26.8,
     11.6,
     0.0,
     26.8,
     3.7,
     0.0,
     3.7,
     3.7,
     0.0,
     3.7,
     11.6,
     0.0;

BuildingSurface:Detailed,
     SB51,
     WALL,
     INT-WALL-1,
     SPACE5-1,
     Surface,
     SB15,
     NoSun,
     NoWind,
     0.0,
     4,
     3.7,
     3.7,
     2.4,
     3.7,
     3.7,
     0.0,
     26.8,
     3.7,
     0.0,
     26.8,
     3.7,
     2.4;

BuildingSurface:Detailed,
     SB52,
     WALL,
     INT-WALL-1,
     SPACE5-1,
     Surface,
     SB25,
     NoSun,
     NoWind,
     0.0,
     4,
     26.8,
     3.7,
     2.4,
     26.8,
     3.7,
     0.0,
     26.8,
     11.6,
     0.0,
     26.8,
     11.6,
     2.4;

BuildingSurface:Detailed,
     SB53,
     WALL,
     INT-WALL-1,
     SPACE5-1,
     Surface,
     SB35,
     NoSun,
     NoWind,
     0.0,
     4,
     26.8,
     11.6,
     2.4,
     26.8,
     11.6,
     0.0,
     3.7,
     11.6,
     0.0,
     3.7,
     11.6,
     2.4;

BuildingSurface:Detailed,
     SB54,
     WALL,
     INT-WALL-1,
     SPACE5-1,
     Surface,
     SB45,
     NoSun,
     NoWind,
     0.0,
     4,
     3.7,
     11.6,
     2.4,
     3.7,
     11.6,
     0.0,
     3.7,
     3.7,
     0.0,
     3.7,
     3.7,
     2.4;

BuildingSurface:Detailed,
     WALL-1SF,
     WALL,
     WALL-1,
     Sup-PLENUM-1,
     Outdoors,
     ,
     SunExposed,
     WindExposed,
     0.5,
     4,
     0.0,
     0.0,
     0.0,
     0.0,
     0.0,
     -0.45,
     30.5,
     0.0,
     -0.45,
     30.5,
     0.0,
     0.0;

BuildingSurface:Detailed,
     WALL-1SR,
     WALL,
     WALL-1,
     Sup-PLENUM-1,
     Outdoors,
     ,
     SunExposed,
     WindExposed,
     0.5,
     4,
     30.5,
     0.0,
     0.0,
     30.5,
     0.0,
     -0.45,
     30.5,
     15.2,
     -0.45,
     30.5,
     15.2,
     0.0;

BuildingSurface:Detailed,
     WALL-1SB,
     WALL,
     WALL-1,
     Sup-PLENUM-1,
     Outdoors,
     ,
     SunExposed,
     WindExposed,
     0.5,
     4,
     30.5,
     15.2,
     0.0,
     30.5,
     15.2,
     -0.45,
     0.0,
     15.2,
     -0.45,
     0.0,
     15.2,
     0.0;

BuildingSurface:Detailed,
     WALL-1SL,
     WALL,
     WALL-1,
     Sup-PLENUM-1,
     Outdoors,
     ,
     SunExposed,
     WindExposed,
     0.5,
     4,
     0.0,
     15.2,
     0.0,
     0.0,
     15.2,
     -0.45,
     0.0,
     0.0,
     -0.45,
     0.0,
     0.0,
     0.0;

BuildingSurface:Detailed,
     BOTTOM-1,
     FLOOR,
     FLOOR-SLAB-1,
     Sup-PLENUM-1,
     Ground,
     ,
     NoSun,
     NoWind,
     0.0,
     4,
     30.5,
     15.2,
     -0.45,
     30.5,
     0.0,
     -0.45,
     0.0,
     0.0,
     -0.45,
     0.0,
     15.2,
     -0.45;

BuildingSurface:Detailed,
     F1-1S,
     CEILING,
     CLNG-1,
     Sup-PLENUM-1,
     Surface,
     F1-1,
     NoSun,
     NoWind,
     0.0,
     4,
     3.7,
     3.7,
     0.0,
     0.0,
     0.0,
     0.0,
     30.5,
     0.0,
     0.0,
     26.8,
     3.7,
     0.0;

BuildingSurface:Detailed,
     F2-1S,
     CEILING,
     CLNG-1,
     Sup-PLENUM-1,
     Surface,
     F2-1,
     NoSun,
     NoWind,
     0.0,
     4,
     26.8,
     3.7,
     0.0,
     30.5,
     0.0,
     0.0,
     30.5,
     15.2,
     0.0,
     26.8,
     11.6,
     0.0;

BuildingSurface:Detailed,
     F3-1S,
     CEILING,
     CLNG-1,
     Sup-PLENUM-1,
     Surface,
     F3-1,
     NoSun,
     NoWind,
     0.0,
     4,
     30.5,
     15.2,
     0.0,
     0.0,
     15.2,
     0.0,
     3.7,
     11.6,
     0.0,
     26.8,
     11.6,
     0.0;

BuildingSurface:Detailed,
     F4-1S,
     CEILING,
     CLNG-1,
     Sup-PLENUM-1,
     Surface,
     F4-1,
     NoSun,
     NoWind,
     0.0,
     4,
     3.7,
     11.6,
     0.0,
     0.0,
     15.2,
     0.0,
     0.0,
     0.0,
     0.0,
     3.7,
     3.7,
     0.0;

BuildingSurface:Detailed,
     F5-1S,
     CEILING,
     CLNG-1,
     Sup-PLENUM-1,
     Surface,
     F5-1,
     NoSun,
     NoWind,
     0.0,
     4,
     3.7,
     11.6,
     0.0,
     3.7,
     3.7,
     0.0,
     26.8,
     3.7,
     0.0,
     26.8,
     11.6,
     0.0;

FenestrationSurface:Detailed,
     WF-1,
     WINDOW,
     Dbl Clr 3mm/13mm Air,
     FRONT-1,
     ,
     0.5,
     ,
     ,
     1,
     4,
     3.0,
     0.0,
     2.1,
     3.0,
     0.0,
     0.9,
     16.8,
     0.0,
     0.9,
     16.8,
     0.0,
     2.1;

FenestrationSurface:Detailed,
     DF-1,
     GLASSDOOR,
     Sgl Grey 3mm,
     FRONT-1,
     ,
     0.5,
     ,
     ,
     1,
     4,
     21.3,
     0.0,
     2.1,
     21.3,
     0.0,
     0.0,
     23.8,
     0.0,
     0.0,
     23.8,
     0.0,
     2.1;

FenestrationSurface:Detailed,
     WR-1,
     WINDOW,
     Dbl Clr 3mm/13mm Air,
     RIGHT-1,
     ,
     0.5,
     ,
     ,
     1,
     4,
     30.5,
     3.8,
     2.1,
     30.5,
     3.8,
     0.9,
     30.5,
     11.4,
     0.9,
     30.5,
     11.4,
     2.1;

FenestrationSurface:Detailed,
     WB-1,
     WINDOW,
     Dbl Clr 3mm/13mm Air,
     BACK-1,
     ,
     0.5,
     ,
     ,
     1,
     4,
     27.4,
     15.2,
     2.1,
     27.4,
     15.2,
     0.9,
     13.7,
     15.2,
     0.9,
     13.7,
     15.2,
     2.1;

FenestrationSurface:Detailed,
     DB-1,
     GLASSDOOR,
     Sgl Grey 3mm,
     BACK-1,
     ,
     0.5,
     ,
     ,
     1,
     4,
     9.1,
     15.2,
     2.1,
     9.1,
     15.2,
     0.0,
     7.0,
     15.2,
     0.0,
     7.0,
     15.2,
     2.1;

FenestrationSurface:Detailed,
     WL-1,
     WINDOW,
     Dbl Clr 3mm/13mm Air,
     LEFT-1,
     ,
     0.5,
     ,
     ,
     1,
     4,
     0.0,
     11.4,
     2.1,
     0.0,
     11.4,
     0.9,
     0.0,
     3.8,
     0.9,
     0.0,
     3.8,
     2.1;

Shading:Zone:Detailed,
     Main South Overhang,
     FRONT-1,
     ShadeTransSch,
     4,
     0.0,
     -1.3,
     2.2,
     0.0,
     0.0,
     2.2,
     19.8,
     0.0,
     2.2,
     19.8,
     -1.3,
     2.2;

Shading:Zone:Detailed,
     South Door Overhang,
     FRONT-1,
     ShadeTransSch,
     4,
     21.0,
     -2.0,
     2.6,
     21.0,
     0.0,
     2.6,
     24.1,
     0.0,
     2.6,
     24.1,
     -2.0,
     2.6;

People,
     SPACE1-1 People 1,
     SPACE1-1,
     OCCUPY-1,
     people,
     11.0,
     ,
     ,
     0.3,
     ,
     ActSchd;

People,
     SPACE2-1 People 1,
     SPACE2-1,
     OCCUPY-1,
     people,
     5.0,
     ,
     ,
     0.3,
     ,
     ActSchd;

People,
     SPACE3-1 People 1,
     SPACE3-1,
     OCCUPY-1,
     people,
     11.0,
     ,
     ,
     0.3,
     ,
     ActSchd;

People,
     SPACE4-1 People 1,
     SPACE4-1,
     OCCUPY-1,
     people,
     5.0,
     ,
     ,
     0.3,
     ,
     ActSchd;

People,
     SPACE5-1 People 1,
     SPACE5-1,
     OCCUPY-1,
     people,
     20.0,
     ,
     ,
     0.3,
     ,
     ActSchd;

Lights,
     SPACE1-1 Lights 1,
     SPACE1-1,
     LIGHTS-1,
     LightingLevel,
     1584.0,
     ,
     ,
     0.2,
     0.59,
     0.2,
     0.0,
     GeneralLights;

Lights,
     SPACE2-1 Lights 1,
     SPACE2-1,
     LIGHTS-1,
     LightingLevel,
     684.0,
     ,
     ,
     0.2,
     0.59,
     0.2,
     0.0,
     GeneralLights;

Lights,
     SPACE3-1 Lights 1,
     SPACE3-1,
     LIGHTS-1,
     LightingLevel,
     1584.0,
     ,
     ,
     0.2,
     0.59,
     0.2,
     0.0,
     GeneralLights;

Lights,
     SPACE4-1 Lights 1,
     SPACE4-1,
     LIGHTS-1,
     LightingLevel,
     684.0,
     ,
     ,
     0.2,
     0.59,
     0.2,
     0.0,
     GeneralLights;

Lights,
     SPACE5-1 Lights 1,
     SPACE5-1,
     LIGHTS-1,
     LightingLevel,
     2964.0,
     ,
     ,
     0.2,
     0.59,
     0.2,
     0.0,
     GeneralLights;

ElectricEquipment,
     SPACE1-1 ElecEq 1,
     SPACE1-1,
     EQUIP-1,
     EquipmentLevel,
     1056.0,
     ,
     ,
     0.0,
     0.3,
     0.0;

ElectricEquipment,
     SPACE2-1 ElecEq 1,
     SPACE2-1,
     EQUIP-1,
     EquipmentLevel,
     456.0,
     ,
     ,
     0.0,
     0.3,
     0.0;

ElectricEquipment,
     SPACE3-1 ElecEq 1,
     SPACE3-1,
     EQUIP-1,
     EquipmentLevel,
     1056.0,
     ,
     ,
     0.0,
     0.3,
     0.0;

ElectricEquipment,
     SPACE4-1 ElecEq 1,
     SPACE4-1,
     EQUIP-1,
     EquipmentLevel,
     456.0,
     ,
     ,
     0.0,
     0.3,
     0.0;

ElectricEquipment,
     SPACE5-1 ElecEq 1,
     SPACE5-1,
     EQUIP-1,
     EquipmentLevel,
     1976.0,
     ,
     ,
     0.0,
     0.3,
     0.0;

ZoneInfiltration:DesignFlowRate,
     SPACE1-1 Infil 1,
     SPACE1-1,
     INFIL-SCH,
     flow/zone,
     0.0167,
     ,
     ,
     ,
     0.0,
     0.0,
     0.2237,
     0.0;

ZoneInfiltration:DesignFlowRate,
     SPACE2-1 Infil 1,
     SPACE2-1,
     INFIL-SCH,
     flow/zone,
     0.00717,
     ,
     ,
     ,