!- Darwin Line endings 

VERSION,                  
    7.3;                      !- Version Identifier
