! MASTER
! Template file which uses ##include statements to pull in all the elements
! which are common across all archetypes. This will also have unique elements
! added by a Python script depending on the archetype characteristics.
! Debugging
! RUN CONTROL
! This section contains elements which are to do with the control of the
! simulation run. There are likely to be few elements here which change.
Version, 8.1.0.009;                               !- Version Identifier
RunPeriod,                                        !- Annual simulation
   ETI Dwellings,                                 !- Location
   5,7,                                          !- Start Month , Day
   5,11,                                          !- End Month , Day
   UseWeatherFile,                                !- will use day as shown in weather file
   No,                                            !- Use weather file holidays/special day periods
   No,                                            !- Use WeatherFile DaylightSavingPeriod - will use daylight saving time shown below
   Yes,                                           !- Apply Weekend Holiday Rule - will reassign weekend holidays to Monday
   Yes,                                           !- use weather file rain indicators
   Yes,                                           !- use weather file snow indicators
   1;                                             !- Number of years in simulation
RunPeriodControl:DaylightSavingTime, Last Sunday in March,Last Sunday in October;  !- Daylight saving dates - one hour is added to local mean time to obtain the locally observed time during this period
ProgramControl,
   1;                                             !- Number of threads allowed
SimulationControl,
   Yes,                                           !- Do the zone sizing calculation
   Yes,                                           !- Do the system sizing calculation
   Yes,                                           !- Do the plant sizing calculation
   No,                                            !- Do the design day calculation
   Yes;                                           !- Do the weather file calculation
SizingPeriod:DesignDay, Summer Design Day in ETI Dwellings Jul,  !- Design Day Name
   7,                                             !- Month
   15,                                            !- Day of Month
   SummerDesignDay,                               !- Day Type -- used for schedules
   27.2,                                          !- Maximum Dry-Bulb Temperature {C}
   9.4,                                           !- Daily Dry-Bulb Temperature Range {C}
   ,                                              !- Dry-Bulb Temperature Range Modifier Type
   ,                                              !- Dry-Bulb Temperature Range Modifier Schedule
   WetBulb,                                       !- Humidity Condition Type
   18.7,                                          !- Wetbulb at Maximum Dry-Bulb{C}
   ,                                              !- Humidity Condition Day Schedule Name
   ,                                              !- Humidity Ratio at Maximum Dry-Bulb
   ,                                              !- Enthalpy Ratio at Maximum Dry-Bulb
   ,                                              !- Daily Wet-Bulb Temperature Range
   100582.4,                                      !- Barometric Pressure {N/M**2}
   0,                                             !- Wind Speed {m/s}
   0,                                             !- Wind Direction {Degrees N=0, S=180}
   0,                                             !- Rain Indicator {0-no,1-yes}
   0,                                             !- Snow on ground indicator {0-no,1-yes}
   1,                                             !- Daylight Savings Time Indicator
   ,                                              !- Solar Model Indicator
   ,                                              !- Beam Solar Day Schedule Name
   ,                                              !- Diffuse Solar Day Schedule Name
   ,                                              !- ASHRAE Clear Sky Optical Depth for Beam Irradiance (taub)
   ,                                              !- ASHRAE Clear Sky Optical Depth for Diffuse Irradiance (taud)
   0.98;                                          !- Clearness {0.0 to 1.1}
SizingPeriod:DesignDay, Winter Design Day in ETI Dwellings,  !- Design Day Name
   1,                                             !- Month
   15,                                            !- Day of Month
   WinterDesignDay,                               !- Day Type -- used for schedules
   -4.4,                                          !- Max Dry-Bulb {C}
   0,                                             !- Daily Temp Range {C}
   ,                                              !- Dry-Bulb Temperature Range Modifier Type
   ,                                              !- Dry-Bulb Temperature Range Modifier Schedule
   WetBulb,                                       !- Humidity Condition Type
   -4.4,                                          !- Wet-Bulb at Max {C}
   ,                                              !- Humidity Condition Day Schedule Name
   ,                                              !- Humidity Ratio at Maximum Dry-Bulb
   ,                                              !- Enthalpy Ratio at Maximum Dry-Bulb
   ,                                              !- Daily Wet-Bulb Temperature Range
   100582.4,                                      !- Barometric Pressure {N/M**2}
   12.3,                                          !- Wind Speed {M/Sec}
   0,                                             !- Wind Direction {Degrees N=0, S=180}
   0,                                             !- Rain Indicator {0-no,1-yes}
   0,                                             !- Snow on ground indicator {0-no,1-yes}
   0,                                             !- Daylight Savings Time Indicator
   ,                                              !- Solar Model Indicator
   ,                                              !- Beam Solar Day Schedule Name
   ,                                              !- Diffuse Solar Day Schedule Name
   ,                                              !- ASHRAE Clear Sky Optical Depth for Beam Irradiance (taub)
   ,                                              !- ASHRAE Clear Sky Optical Depth for Diffuse Irradiance (taud)
   0;                                             !- Clearness {0.0 to 1.1} - gives no sun (but does include long wave radiant heat exchange with sky)
Timestep, 6;                                      !- Timesteps/hour
ConvergenceLimits,
   1,                                             !- Minimum System Time Step (0=same as zone time step)
   20;                                            !- Maximum HVAC Iterations (1=min, 20=default)
HeatBalanceAlgorithm,
   ConductionTransferFunction,                    !- Heat Balance Algorithm: CTF or CondFD
   2000;                                          !- Max Surface Temperature Limit
ShadowCalculation, AverageOverDaysInFrequency, 20,  15000, SutherlandHodgman, SimpleSkyDiffuseModeling;  !- Interval between shading calcs
SurfaceConvectionAlgorithm:Inside,TARP;           !- Inside Convection Algorithm
SurfaceConvectionAlgorithm:Outside,DOE-2;         !- Outside Convection Algorithm
ZoneCapacitanceMultiplier:ResearchSpecial, 1, 1.0, 1.0, 1.0 ;
! BUILDING
! Contains elements to do with the location and site of the building
! Included elements are:
!- Site:Location
!- Site:GroundTemperatures
!- Site:GroundReflectances
!- Building
Site:Location,Unseen University,                      !- Location Name
   51.5248,                                         !- Latitude
   0.1336,                                         !- Longitude
   0,                                             !- Time Zone
   34.678;                                            !- Elevation {m}
Site:GroundTemperature:BuildingSurface,           !- Annual ground temperatures - 1 value for each month
   18,                                            !- Jan ground temperature
   18,                                            !- Feb ground temperature
   18,                                            !- Mar ground temperature
   18,                                            !- Apr ground temperature
   18,                                            !- May ground temperature
   18,                                            !- Jun ground temperature
   18,                                            !- Jul ground temperature
   18,                                            !- Aug ground temperature
   18,                                            !- Sep ground temperature
   18,                                            !- Oct ground temperature
   18,                                            !- Nov ground temperature
   18;                                            !- Dec ground temperature
Site:GroundTemperature:Deep,                      !- Annual ground temperatures - 1 value for each month
   14,                                            !- Jan deep ground temperature
   14,                                            !- Feb deep ground temperature
   14,                                            !- Mar deep ground temperature
   14,                                            !- Apr deep ground temperature
   14,                                            !- May deep ground temperature
   14,                                            !- Jun deep ground temperature
   14,                                            !- Jul deep ground temperature
   14,                                            !- Aug deep ground temperature
   14,                                            !- Sep deep ground temperature
   14,                                            !- Oct deep ground temperature
   14,                                            !- Nov deep ground temperature
   14;                                            !- Dec deep ground temperature
Site:GroundTemperature:Shallow,                   !- Annual ground temperatures - 1 value for each month
   14,                                            !- Jan shallow ground temperature
   14,                                            !- Feb shallow ground temperature
   14,                                            !- Mar shallow ground temperature
   14,                                            !- Apr shallow ground temperature
   14,                                            !- May shallow ground temperature
   14,                                            !- Jun shallow ground temperature
   14,                                            !- Jul shallow ground temperature
   14,                                            !- Aug shallow ground temperature
   14,                                            !- Sep shallow ground temperature
   14,                                            !- Oct shallow ground temperature
   14,                                            !- Nov shallow ground temperature
   14;                                            !- Dec shallow ground temperature
Site:GroundTemperature:FCfactorMethod,            !- Annual ground temperatures - 1 value for each month
   4.16,                                          !- January FCfactorMethod ground temperature {C}
   5.30,                                          !- Februry FCfactorMethod ground temperature {C}
   7.51,                                          !- March FCfactorMethod ground temperature {C}
   9.61,                                          !- April FCfactorMethod ground temperature {C}
   13.58,                                         !- May FCfactorMethod ground temperature {C}
   15.67,                                         !- June FCfactorMethod ground temperature {C}
   16.24,                                         !- July FCfactorMethod ground temperature {C}
   15.18,                                         !- August FCfactorMethod ground temperature {C}
   12.74,                                         !- September FCfactorMethod ground temperature {C}
   9.69,                                          !- October FCfactorMethod ground temperature {C}
   6.69,                                          !- November FCfactorMethod ground temperature {C}
   4.70;                                          !- December FCfactorMethod ground temperature {C}
Site:GroundReflectance,                           !- Annual ground reflectances - 1 value for each month
   0.2,                                           !- Jan ground reflectance
   0.2,                                           !- Feb ground reflectance
   0.2,                                           !- Mar ground reflectance
   0.2,                                           !- Apr ground reflectance
   0.2,                                           !- May ground reflectance
   0.2,                                           !- Jun ground reflectance
   0.2,                                           !- Jul ground reflectance
   0.2,                                           !- Aug ground reflectance
   0.2,                                           !- Sep ground reflectance
   0.2,                                           !- Oct ground reflectance
   0.2,                                           !- Nov ground reflectance
   0.2;                                           !- Dec ground reflectance
Site:GroundReflectance:SnowModifier,
   2.0,                                           !- Ground Reflected Solar Modifier
   2.0;                                           !- Daylighting Ground Reflected Solar Modifier
Building, Building,                               !- Building Name
    0,                                            !- North Axis
   Urban,                                       !- Terrain
    .04,                                          !- Loads Convergence Tolerance
    .4,                                           !- Temperature Convergence Tolerance
   FullExterior,                                  !- Solar Distribution
   25,                                            !- Maximum number of warmup days
   6;                                             !- Minimum number of warmup days
Site:WaterMainsTemperature,                       !- Defines site mains water temperature
   Correlation,                                   !- Calculation Method
   ,                                              !- Schedule Name
   10,                                            !- Annual Average Outdoor Air Temperature
   20;                                            !- Maximum Difference In Monthly Average Outdoor Air Temperatures
!- Elements to do with HVAC as created by DesignBuilder
! This input file is intended to replace the other way of doing things which
! has a larger number of input files, one for each configuration of primary and
! secondary heating, and availability or otherwise of storage.
!
! For heaters and emitters, presence or absence is set by modifying the size of
! components. If they are not available for heating then they are sized to 0 W.
! If storage is not available (e.g. for a combi boiler) then the water heater
! volume is set to approx. 3 litres as recommended by EnergyPlus documentation.
! =============================================================================
! =============================================================================
! We set all macro values here.
! This is set up so that primary and secondary heating system sizes are automatically set
! Primary heating system
!- Primary heating system
!- PrimaryHeater - Boiler
!- Primary Heating Fuel - NaturalGas
!- Primary System Efficiency - 0.85
! Secondary heating system
!- Secondary heating system
!- SecondaryHeater - None
!- Secondary Heating Fuel - OtherFuel1
!- Secondary System Efficiency - 1.0
! ASHPAvailability Off
! DHNAvailability Off
! FCCHPHeatAvailability Off
! GSHPAvailability Off
! PrimaryBoilerAvailability On
! PrimaryElectricAvailability Off
! SecondaryBoilerAvailability Off
! SHWAvailability Off
! ElectricRadiatorAvailability Off
! Finally, include the main heating system definition IMF
! Start detailed HVAC data definition
PlantEquipmentOperationSchemes,
   Primary HT HW Loop Operation,                                         ! - Name of plant/condenser equipment operation scheme
   PlantEquipmentOperation:HeatingLoad,                                  ! - Control scheme object type 1
   Primary HT HW Loop Scheme ElecStorageOn,                                          ! - Name of control scheme 1
   ETI_StorageOn,                                                                    ! - Control scheme schedule 1
   Primary HT HW Loop Scheme ElecStorageOff,                                          ! - Name of control scheme 1
   ETI_StorageOff;                                                                   ! - Control scheme schedule 1
PlantEquipmentOperation:HeatingLoad,
   Primary HT HW Loop Scheme ElecStorageOn,                                          ! - Name of control scheme
   0.00,                                                                 ! - Range lower limit 1
   8543.940429688,                                                  ! - Range upper limit 1
   HT HW Loop PrimaryBoiler Equipment List,                  ! - Range equipment list name 1
   8543.940429688,                                                                 ! - Range lower limit 2
    8543.950195312,                                                  ! - Range upper limit 2
   HT HW Loop DHN Equipment List,                  ! - Range equipment list name 2
    8543.950195312,                              ! - Range lower limit 3
     8543.959960938,              ! - Range upper limit 3
   HT HW Loop SecondaryBoiler Equipment List;                  ! - Range equipment list name 3
PlantEquipmentOperation:HeatingLoad,
   Primary HT HW Loop Scheme ElecStorageOff,                                          ! - Name of control scheme
   0.00,                                                                 ! - Range lower limit 1
   8543.940429688,                                                  ! - Range upper limit 1
   HT HW Loop PrimaryBoiler Equipment List,                  ! - Range equipment list name 1
   8543.940429688,                                                                 ! - Range lower limit 2
    8543.950195312,                                                  ! - Range upper limit 2
   HT HW Loop DHN Equipment List,                  ! - Range equipment list name 2
    8543.950195312,                              ! - Range lower limit 3
     8543.959960938,              ! - Range upper limit 3
   HT HW Loop SecondaryBoiler Equipment List;                  ! - Range equipment list name 3
PlantEquipmentList,
   HT HW Loop PrimaryBoiler Equipment List,                  ! - Range equipment list name 0
   Boiler:HotWater,                                                      ! - Equipment 1 object type
   Primary Boiler;                                                       ! - Equipment 1 name
PlantEquipmentList,
   HT HW Loop SecondaryBoiler Equipment List,                  ! - Range equipment list name 0
   Boiler:HotWater,                                                      ! - Equipment 1 object type
   Secondary Boiler;                                                       ! - Equipment 1 name
PlantEquipmentList,
   HT HW Loop DHN Equipment List,                  ! - Range equipment list name 0
   DistrictHeating,                                                    ! - Equipment 1 object type
   Purchased Heating;                                                        ! - Equipment 1 name
PlantEquipmentOperationSchemes,
   LTHW Loop Operation,                                                 ! - Name of plant/condenser equipment operation scheme
   PlantEquipmentOperation:HeatingLoad,                                  ! - Control scheme object type 1
   LTHW Loop Scheme ElecStorageOn,                                                  ! - Name of control scheme 1
   ETI_StorageOn,                                                                    ! - Control scheme schedule 1
   LTHW Loop Scheme ElecStorageOff,                                                  ! - Name of control scheme 2
   ETI_StorageOff;                                                                    ! - Control scheme schedule 2
PlantEquipmentOperation:HeatingLoad,
   LTHW Loop Scheme ElecStorageOn,                                                  ! - Name of control scheme
   0.00,                                                                 ! - Range lower limit 1
   1000000000000000.00,                                                  ! - Range upper limit 1
   LTHW Loop Scheme ElecStorageOn Equipment List;                           ! - Range equipment list name 1
PlantEquipmentOperation:HeatingLoad,
   LTHW Loop Scheme ElecStorageOff,                                                  ! - Name of control scheme
   0.00,                                                                 ! - Range lower limit 1
   1000000000000000.00,                                                  ! - Range upper limit 1
   LTHW Loop Scheme ElecStorageOff Equipment List;                           ! - Range equipment list name 1
PlantEquipmentList,
	LTHW Loop Scheme ElecStorageOn Equipment List,                           ! - Range equipment list name 0
		   WaterHeater:Mixed,                                                    ! - Equipment 1 object type
		   Auxiliary Water Heater;                                                        ! - Equipment 1 name
PlantEquipmentList,
	LTHW Loop Scheme ElecStorageOff Equipment List,                           ! - Range equipment list name 0
		   WaterHeater:Mixed,                                                    ! - Equipment 1 object type
		   Auxiliary Water Heater;                                                        ! - Equipment 1 name
Sizing:Plant,
   LTHW Loop,                                                           ! - Name of loop
   Heating,                                                              ! - Type of loop
   56.00,                                                                ! - Design loop exit temperature (C)
   5.00;                                                                 ! - Loop design temperature difference (C)
PlantLoop,
   LTHW Loop,                                                           ! - Name of loop
   Water,                                                                ! - Fluid type
   ,                                                                     ! - User-defined fluid type
   LTHW Loop Operation,                                                 ! - Plant equipment operation scheme
   LTHW Loop Supply Side Outlet,                                        ! - Loop temperature setpoint node
   80.00,                                                                ! - Maximum loop temperature (C)
   0.00,                                                                 ! - Minimum loop temperature (C)
   autosize,                                                             ! - Maximum loop flow rate (m3/s)
   0.000000,                                                             ! - Minimum loop flow rate (m3/s)
   autocalculate,                                                        ! - Volume of the plant loop (m3)
   LTHW Loop Supply Side Inlet,                                         ! - Plant side inlet node
   LTHW Loop Supply Side Outlet,                                        ! - Plant side outlet node
   LTHW Loop Supply Side Branches,                                      ! - Plant side branch list name
   LTHW Loop Supply Side Connectors,                                    ! - Plant side connector list name
   LTHW Loop Demand Side Inlet,                                         ! - Demand side inlet node
   LTHW Loop Demand Side Outlet,                                        ! - Demand side outlet node
   LTHW Loop Demand Side Branches,                                      ! - Demand side branch list name
   LTHW Loop Demand Side Connectors,                                    ! - Demand side connector list name
   Sequential,                                                           ! - Load distribution scheme
   LTHW Loop AvailabilityManager List,                                  ! - Availability manager list name
   SingleSetpoint,                                                       ! - Plant loop demand calculation scheme
   None,                                                                 ! - Common pipe simulation
   None;                                                                 ! - Pressure simulation type
BranchList,
   LTHW Loop Demand Side Branches,                                      ! - Name of branch list
   LTHW Loop Demand Side Inlet Branch,                                  ! - Name of branch 1
   LTHW Loop Demand Side Bypass Branch,                                 ! - Name of branch 2
   Water Outlet Group DHW Plant Loop Branch,                             ! - Name of branch 3
   Building:SAPZone2 Water Convector DHW Plant Loop Branch,              ! - Name of branch 4
   Building:SAPZone1 Water Convector DHW Plant Loop Branch,              ! - Name of branch 5
   LTHW Loop Demand Side Outlet Branch;                                 ! - Name of branch 6
Branch,
   LTHW Loop Demand Side Inlet Branch,                                  ! - Branch name
   autosize,                                                             ! - Maximum flow rate (m3/s)
   ,                                                                     ! - Pressure drop curve name
   Pipe:Adiabatic,                                                       ! - Component 1 object type
   LTHW Loop Demand Side Inlet Branch Pipe,                             ! - Component 1 name
   LTHW Loop Demand Side Inlet,                                         ! - Component 1 inlet node name
   LTHW Loop Demand Side Inlet Branch Pipe Outlet,                      ! - Component 1 outlet node name
   Passive;                                                              ! - Component 1 branch control type
Pipe:Adiabatic,
   LTHW Loop Demand Side Inlet Branch Pipe,                             ! - Name of pipe
   LTHW Loop Demand Side Inlet,                                         ! - Inlet node name
   LTHW Loop Demand Side Inlet Branch Pipe Outlet;                      ! - Outlet node name
Branch,
   LTHW Loop Demand Side Bypass Branch,                                 ! - Branch name
   autosize,                                                             ! - Maximum flow rate (m3/s)
   ,                                                                     ! - Pressure drop curve name
   Pipe:Adiabatic,                                                       ! - Component 1 object type
   LTHW Loop Demand Side Bypass Pipe,                                   ! - Component 1 name
   LTHW Loop Demand Side Bypass Pipe Inlet Node,                        ! - Component 1 inlet node name
   LTHW Loop Demand Side Bypass Pipe Outlet Node,                       ! - Component 1 outlet node name
   Bypass;                                                               ! - Component 1 branch control type
Pipe:Adiabatic,
   LTHW Loop Demand Side Bypass Pipe,                                   ! - Name of pipe
   LTHW Loop Demand Side Bypass Pipe Inlet Node,                        ! - Inlet node name
   LTHW Loop Demand Side Bypass Pipe Outlet Node;                       ! - Outlet node name
Branch,
   Water Outlet Group DHW Plant Loop Branch,                             ! - Branch name
   autosize,                                                             ! - Maximum flow rate (m3/s)
   ,                                                                     ! - Pressure drop curve name
   WaterUse:Connections,                                                 ! - Component 1 object type
   Water Outlet Group,                                                   ! - Component 1 name
   Water Outlet Group Water Inlet Node,                                  ! - Component 1 inlet node name
   Water Outlet Group Water Outlet Node,                                 ! - Component 1 outlet node name
   Active;                                                               ! - Component 1 branch control type
WaterUse:Connections,
   Water Outlet Group,                                                   ! - Component name
   Water Outlet Group Water Inlet Node,                                  ! - Water inlet node name
   Water Outlet Group Water Outlet Node,                                 ! - Water outlet node name
   ,                                                                     ! - Supply water storage tank name
   ,                                                                     ! - Reclamation water storage tank name
   ,                                                                     ! - Hot water supply temperature schedule
   ,                                                                     ! - Cold water supply temperature schedule
   None,                                                                 ! - Drain water heat exchanger type
   Plant,                                                                ! - Drain water heat exchanger destination
   1500.000,                                                             ! - Drain water heat exchanger U-factor*area (W/K)
   Building:SAPZone1 Water Outlet;                                       ! - Water use equipment 1 name
WaterUse:Equipment,
   Building:SAPZone1 Water Outlet,                                       ! - Component name