!-Generator IDFEditor 1.38a
!-Option SortedOrder ViewInIPunits

!-NOTE: All comments with '!-' are ignored by the IDFEditor and are generated automatically.
!-      Use '!' comments if they need to be retained when using the IDFEditor.


!-   ===========  ALL OBJECTS IN CLASS: VERSION ===========

Version,
    6.0;                     !- Version Identifier


!-   ===========  ALL OBJECTS IN CLASS: SIMULATIONCONTROL ===========

SimulationControl,
    Yes,                     !- Do Zone Sizing Calculation
    Yes,                     !- Do System Sizing Calculation
    No,                      !- Do Plant Sizing Calculation
    Yes,                     !- Run Simulation for Sizing Periods
    Yes;                     !- Run Simulation for Weather File Run Periods


!-   ===========  ALL OBJECTS IN CLASS: BUILDING ===========

Building,
    Untitled,                !- Name
    0.0,                     !- North Axis {deg}
    City,                    !- Terrain
    0.04,                    !- Loads Convergence Tolerance Value
    0.4,                     !- Temperature Convergence Tolerance Value {deltaC}
    FullInteriorAndExterior, !- Solar Distribution
    25;                      !- Maximum Number of Warmup Days


!-   ===========  ALL OBJECTS IN CLASS: TIMESTEP ===========

Timestep,
    4;                       !- Number of Timesteps per Hour


!-   ===========  ALL OBJECTS IN CLASS: SITE:LOCATION ===========

Site:Location,
    Oakland Intl AP_CA_USA Design_Conditions,  !- Name
    37.72,                   !- Latitude {deg}
    -122.22,                 !- Longitude {deg}
    -8.0,                    !- Time Zone {hr}
    2.00;                    !- Elevation {m}


!-   ===========  ALL OBJECTS IN CLASS: SIZINGPERIOD:DESIGNDAY ===========

SizingPeriod:DesignDay,
    Oakland Intl AP Ann Htg 99.6% Condns DB,  !- Name
    3.1,                     !- Maximum Dry-Bulb Temperature {C}
    0.0,                     !- Daily Temperature Range {deltaC}
    3.1,                     !- Humidity Indicating Conditions at Maximum Dry-Bulb
    101301.,                 !- Barometric Pressure {Pa}
    2.3,                     !- Wind Speed {m/s}
    50,                      !- Wind Direction {deg}
    0.00,                    !- Sky Clearness
    0,                       !- Rain Indicator
    0,                       !- Snow Indicator
    21,                      !- Day of Month
    1,                       !- Month
    WinterDesignDay,         !- Day Type
    0,                       !- Daylight Saving Time Indicator
    WetBulb;                 !- Humidity Indicating Type

SizingPeriod:DesignDay,
    Oakland Intl AP Ann Htg 99% Condns DB,  !- Name
    4.3,                     !- Maximum Dry-Bulb Temperature {C}
    0.0,                     !- Daily Temperature Range {deltaC}
    4.3,                     !- Humidity Indicating Conditions at Maximum Dry-Bulb
    101301.,                 !- Barometric Pressure {Pa}
    2.3,                     !- Wind Speed {m/s}
    50,                      !- Wind Direction {deg}
    0.00,                    !- Sky Clearness
    0,                       !- Rain Indicator
    0,                       !- Snow Indicator
    21,                      !- Day of Month
    1,                       !- Month
    WinterDesignDay,         !- Day Type
    0,                       !- Daylight Saving Time Indicator
    WetBulb;                 !- Humidity Indicating Type


!-   ===========  ALL OBJECTS IN CLASS: RUNPERIOD ===========

RunPeriod,
    ,                        !- Name
    2,                       !- Begin Month
    2,                       !- Begin Day of Month
    2,                       !- End Month
    8,                       !- End Day of Month
    UseWeatherFile,          !- Day of Week for Start Day
    Yes,                     !- Use Weather File Holidays and Special Days
    Yes,                     !- Use Weather File Daylight Saving Period
    No,                      !- Apply Weekend Holiday Rule
    Yes,                     !- Use Weather File Rain Indicators
    Yes,                     !- Use Weather File Snow Indicators
    1;                       !- Number of Times Runperiod to be Repeated


!-   ===========  ALL OBJECTS IN CLASS: GLOBALGEOMETRYRULES ===========

GlobalGeometryRules,
    UpperLeftCorner,         !- Starting Vertex Position
    Counterclockwise,        !- Vertex Entry Direction
    Relative;                !- Coordinate System


!-   ===========  ALL OBJECTS IN CLASS: OUTPUT:VARIABLEDICTIONARY ===========

Output:VariableDictionary,
    regular;                 !- Key Field


!-   ===========  ALL OBJECTS IN CLASS: OUTPUT:VARIABLE ===========

Output:Variable,
    *,                       !- Key Value
    Outdoor Dry Bulb,        !- Variable Name
    Hourly;                  !- Reporting Frequency

Output:Variable,
    *,                       !- Key Value
    Outdoor Relative Humidity ,  !- Variable Name
    Timestep;                !- Reporting Frequency

Output:Variable,
    *,                       !- Key Value
    Outdoor Wet Bulb ,       !- Variable Name
    Hourly;                  !- Reporting Frequency


!-   ===========  ALL OBJECTS IN CLASS: OUTPUT:SQLITE ===========

Output:SQLite,
    Simple;                  !- Option Type

