!- Windows Line endings

Version,
    23.2;                     !- Version Identifier

SimulationControl,
    Yes,                      !- Do Zone Sizing Calculation
    Yes,                      !- Do System Sizing Calculation
    Yes,                      !- Do Plant Sizing Calculation
    No,                       !- Run Simulation for Sizing Periods
    Yes,                      !- Run Simulation for Weather File Run Periods
    No,                       !- Do HVAC Sizing Simulation for Sizing Periods
    1;                        !- Maximum Number of HVAC Sizing Simulation Passes

Building,
    Building,                 !- Name
    30,                       !- North Axis
    City,                     !- Terrain
    0.04,                     !- Loads Convergence Tolerance Value
    0.4,                      !- Temperature Convergence Tolerance Value
    FullExterior,             !- Solar Distribution
    25,                       !- Maximum Number of Warmup Days
    6;                        !- Minimum Number of Warmup Days

SurfaceConvectionAlgorithm:Inside,
    TARP;                     !- Algorithm

SurfaceConvectionAlgorithm:Outside,
    DOE-2;                    !- Algorithm

HeatBalanceAlgorithm,
    ConductionTransferFunction;    !- Algorithm

Timestep,
    4;                        !- Number of Timesteps per Hour

Site:Location,
    CHICAGO_IL_USA TMY2-94846,    !- Name
    41.78,                    !- Latitude
    -87.75,                   !- Longitude
    -6,                       !- Time Zone
    190;                      !- Elevation

SizingPeriod:DesignDay,
    CHICAGO_IL_USA Annual Heating 99% Design Conditions DB,    !- Name
    1,                        !- Month
    21,                       !- Day of Month
    WinterDesignDay,          !- Day Type
    -17.3,                    !- Maximum DryBulb Temperature
    0,                        !- Daily DryBulb Temperature Range
    ,                         !- DryBulb Temperature Range Modifier Type
    ,                         !- DryBulb Temperature Range Modifier Day Schedule Name
    Wetbulb,                  !- Humidity Condition Type
    -17.3,                    !- Wetbulb or DewPoint at Maximum DryBulb
    ,                         !- Humidity Condition Day Schedule Name
    ,                         !- Humidity Ratio at Maximum DryBulb
    ,                         !- Enthalpy at Maximum DryBulb
    ,                         !- Daily WetBulb Temperature Range
    99063,                    !- Barometric Pressure
    4.9,                      !- Wind Speed
    270,                      !- Wind Direction
    No,                       !- Rain Indicator
    No,                       !- Snow Indicator
    No,                       !- Daylight Saving Time Indicator
    ASHRAEClearSky,           !- Solar Model Indicator
    ,                         !- Beam Solar Day Schedule Name
    ,                         !- Diffuse Solar Day Schedule Name
    ,                         !- ASHRAE Clear Sky Optical Depth for Beam Irradiance taub
    ,                         !- ASHRAE Clear Sky Optical Depth for Diffuse Irradiance taud
    0;                        !- Sky Clearness

SizingPeriod:DesignDay,
    CHICAGO_IL_USA Annual Cooling 1% Design Conditions DB/MCWB,    !- Name
    7,                        !- Month
    21,                       !- Day of Month
    SummerDesignDay,          !- Day Type
    31.5,                     !- Maximum DryBulb Temperature
    10.7,                     !- Daily DryBulb Temperature Range
    ,                         !- DryBulb Temperature Range Modifier Type
    ,                         !- DryBulb Temperature Range Modifier Day Schedule Name
    Wetbulb,                  !- Humidity Condition Type
    23,                       !- Wetbulb or DewPoint at Maximum DryBulb
    ,                         !- Humidity Condition Day Schedule Name
    ,                         !- Humidity Ratio at Maximum DryBulb
    ,                         !- Enthalpy at Maximum DryBulb
    ,                         !- Daily WetBulb Temperature Range
    99063,                    !- Barometric Pressure
    5.3,                      !- Wind Speed
    230,                      !- Wind Direction
    No,                       !- Rain Indicator
    No,                       !- Snow Indicator
    No,                       !- Daylight Saving Time Indicator
    ASHRAEClearSky,           !- Solar Model Indicator
    ,                         !- Beam Solar Day Schedule Name
    ,                         !- Diffuse Solar Day Schedule Name
    ,                         !- ASHRAE Clear Sky Optical Depth for Beam Irradiance taub
    ,                         !- ASHRAE Clear Sky Optical Depth for Diffuse Irradiance taud
    1;                        !- Sky Clearness

RunPeriod,
    Run Period 1,             !- Name
    1,                        !- Begin Month
    14,                       !- Begin Day of Month
    ,                         !- Begin Year
    1,                        !- End Month
    14,                       !- End Day of Month
    ,                         !- End Year
    Tuesday,                  !- Day of Week for Start Day
    Yes,                      !- Use Weather File Holidays and Special Days
    Yes,                      !- Use Weather File Daylight Saving Period
    No,                       !- Apply Weekend Holiday Rule
    Yes,                      !- Use Weather File Rain Indicators
    Yes;                      !- Use Weather File Snow Indicators

RunPeriod,
    Run Period 2,             !- Name
    7,                        !- Begin Month
    7,                        !- Begin Day of Month
    ,                         !- Begin Year
    7,                        !- End Month
    7,                        !- End Day of Month
    ,                         !- End Year
    Tuesday,                  !- Day of Week for Start Day
    Yes,                      !- Use Weather File Holidays and Special Days
    Yes,                      !- Use Weather File Daylight Saving Period
    No,                       !- Apply Weekend Holiday Rule
    Yes,                      !- Use Weather File Rain Indicators
    Yes;                      !- Use Weather File Snow Indicators
! 
! Site:GroundTemperature:BuildingSurface,
!     21.5,                     !- January Ground Temperature
!     21.4,                     !- February Ground Temperature
!     21.5,                     !- March Ground Temperature
!     21.5,                     !- April Ground Temperature
!     22,                       !- May Ground Temperature
!     22.9,                     !- June Ground Temperature
!     23,                       !- July Ground Temperature
!     23.1,                     !- August Ground Temperature
!     23.1,                     !- September Ground Temperature
!     22.2,                     !- October Ground Temperature
!     21.7,                     !- November Ground Temperature
!     21.6;                     !- December Ground Temperature

ScheduleTypeLimits,
    Any Number;               !- Name

ScheduleTypeLimits,
    Fraction,                 !- Name
    0,                        !- Lower Limit Value
    1,                        !- Upper Limit Value
    CONTINUOUS;               !- Numeric Type

ScheduleTypeLimits,
    Temperature,              !- Name
    -60,                      !- Lower Limit Value
    200,                      !- Upper Limit Value
    CONTINUOUS,               !- Numeric Type
    Temperature;              !- Unit Type

ScheduleTypeLimits,
    Control Type,             !- Name
    0,                        !- Lower Limit Value
    4,                        !- Upper Limit Value
    DISCRETE;                 !- Numeric Type

ScheduleTypeLimits,
    On/Off,                   !- Name
    0,                        !- Lower Limit Value
    1,                        !- Upper Limit Value
    DISCRETE;                 !- Numeric Type

ScheduleTypeLimits,
    FlowRate,                 !- Name
    0,                        !- Lower Limit Value
    10,                       !- Upper Limit Value
    CONTINUOUS;               !- Numeric Type

Schedule:Compact,
    OCCUPY-1,                 !- Name
    Fraction,                 !- Schedule Type Limits Name
    Through: 12/31,           !- Field 1
    For: WeekDays SummerDesignDay CustomDay1 CustomDay2,    !- Field 2
    Until: 8:00,              !- Field 3
    0.0,                      !- Field 4
    Until: 11:00,             !- Field 5
    1.00,                     !- Field 6
    Until: 12:00,             !- Field 7
    0.80,                     !- Field 8
    Until: 13:00,             !- Field 9
    0.40,                     !- Field 10
    Until: 14:00,             !- Field 11
    0.80,                     !- Field 12
    Until: 18:00,             !- Field 13
    1.00,                     !- Field 14
    Until: 19:00,             !- Field 15
    0.50,                     !- Field 16
    Until: 21:00,             !- Field 17
    0.10,                     !- Field 18
    Until: 24:00,             !- Field 19
    0.0,                      !- Field 20
    For: Weekends WinterDesignDay Holiday,    !- Field 21
    Until: 24:00,             !- Field 22
    0.0;                      !- Field 23

Schedule:Compact,
    LIGHTS-1,                 !- Name
    Fraction,                 !- Schedule Type Limits Name
    Through: 12/31,           !- Field 1
    For: WeekDays SummerDesignDay CustomDay1 CustomDay2,    !- Field 2
    Until: 8:00,              !- Field 3
    0.05,                     !- Field 4
    Until: 9:00,              !- Field 5
    0.9,                      !- Field 6
    Until: 10:00,             !- Field 7
    0.95,                     !- Field 8
    Until: 11:00,             !- Field 9
    1.00,                     !- Field 10
    Until: 12:00,             !- Field 11
    0.95,                     !- Field 12
    Until: 13:00,             !- Field 13
    0.8,                      !- Field 14
    Until: 14:00,             !- Field 15
    0.9,                      !- Field 16
    Until: 18:00,             !- Field 17
    1.00,                     !- Field 18
    Until: 19:00,             !- Field 19
    0.60,                     !- Field 20
    Until: 21:00,             !- Field 21
    0.40,                     !- Field 22
    Until: 24:00,             !- Field 23
    0.05,                     !- Field 24
    For: Weekends WinterDesignDay Holiday,    !- Field 25
    Until: 24:00,             !- Field 26
    0.05;                     !- Field 27

Schedule:Compact,
    EQUIP-1,                  !- Name
    Fraction,                 !- Schedule Type Limits Name
    Through: 12/31,           !- Field 1
    For: WeekDays SummerDesignDay CustomDay1 CustomDay2,    !- Field 2
    Until: 8:00,              !- Field 3
    0.02,                     !- Field 4
    Until: 9:00,              !- Field 5
    0.4,                      !- Field 6
    Until: 14:00,             !- Field 7
    0.9,                      !- Field 8
    Until: 15:00,             !- Field 9
    0.8,                      !- Field 10
    Until: 16:00,             !- Field 11
    0.7,                      !- Field 12
    Until: 18:00,             !- Field 13
    0.5,                      !- Field 14
    Until: 21:00,             !- Field 15
    0.3,                      !- Field 16
    Until: 24:00,             !- Field 17
    0.02,                     !- Field 18
    For: Weekends WinterDesignDay Holiday,    !- Field 19
    Until: 24:00,             !- Field 20
    0.02;                     !- Field 21

Schedule:Compact,
    INFIL-SCH,                !- Name
    Fraction,                 !- Schedule Type Limits Name
    Through: 12/31,           !- Field 1
    For: WeekDays CustomDay1 CustomDay2,    !- Field 2
    Until: 7:00,              !- Field 3
    1.0,                      !- Field 4
    Until: 21:00,             !- Field 5
    1.0,                      !- Field 6
    Until: 24:00,             !- Field 7
    1.0,                      !- Field 8
    For: Weekends Holiday,    !- Field 9
    Until: 24:00,             !- Field 10
    1.0,                      !- Field 11
    For: SummerDesignDay,     !- Field 12
    Until: 24:00,             !- Field 13
    1.0,                      !- Field 14
    For: WinterDesignDay,     !- Field 15
    Until: 24:00,             !- Field 16
    1.0;                      !- Field 17

Schedule:Compact,
    VENT-SCH,                 !- Name
    Fraction,                 !- Schedule Type Limits Name
    Through: 12/31,           !- Field 1
    For: WeekDays CustomDay1 CustomDay2,    !- Field 2
    Until: 7:00,              !- Field 3
    1.0,                      !- Field 4
    Until: 21:00,             !- Field 5
    1.0,                      !- Field 6
    Until: 24:00,             !- Field 7
    1.0,                      !- Field 8
    For: Weekends Holiday,    !- Field 9
    Until: 24:00,             !- Field 10
    1.0,                      !- Field 11
    For: SummerDesignDay,     !- Field 12
    Until: 24:00,             !- Field 13
    1.0,                      !- Field 14
    For: WinterDesignDay,     !- Field 15
    Until: 24:00,             !- Field 16
    1.0;                      !- Field 17

Schedule:Compact,
    ActSchd,                  !- Name
    Any Number,               !- Schedule Type Limits Name
    Through: 12/31,           !- Field 1
    For: AllDays,             !- Field 2
    Until: 24:00,             !- Field 3
    117.239997864;            !- Field 4

Schedule:Compact,
    ShadeTransSch,            !- Name
    Fraction,                 !- Schedule Type Limits Name
    Through: 12/31,           !- Field 1
    For: AllDays,             !- Field 2
    Until: 24:00,             !- Field 3
    0.0;                      !- Field 4

Schedule:Compact,
    Htg-SetP-Sch,             !- Name
    Temperature,              !- Schedule Type Limits Name
    Through: 12/31,           !- Field 1
    For: WeekDays CustomDay1 CustomDay2,    !- Field 2
    Until: 6:00,              !- Field 3
    13.0,                     !- Field 4
    Until: 7:00,              !- Field 5
    18.0,                     !- Field 6
    Until: 21:00,             !- Field 7
    21.0,                     !- Field 8
    Until: 24:00,             !- Field 9
    13.0,                     !- Field 10
    For: WeekEnds Holiday,    !- Field 11
    Until: 24:00,             !- Field 12
    13.0,                     !- Field 13
    For: SummerDesignDay,     !- Field 14
    Until: 24:00,             !- Field 15
    13.0,                     !- Field 16
    For: WinterDesignDay,     !- Field 17
    Until: 24:00,             !- Field 18
    21.0;                     !- Field 19

Schedule:Compact,
    No-Clg-SetP-Sch,          !- Name
    Temperature,              !- Schedule Type Limits Name
    Through: 12/31,           !- Field 1
    For: WeekDays CustomDay1 CustomDay2,    !- Field 2
    Until: 24:00,             !- Field 3
    99.0,                     !- Field 4
    For: WeekEnds Holiday,    !- Field 5
    Until: 24:00,             !- Field 6
    99.0,                     !- Field 7
    For: SummerDesignDay,     !- Field 8
    Until: 24:00,             !- Field 9
    99.0,                     !- Field 10
    For: WinterDesignDay,     !- Field 11
    Until: 24:00,             !- Field 12
    99.0;                     !- Field 13

Material,
    WD10,                     !- Name
    MediumSmooth,             !- Roughness
    0.667,                    !- Thickness
    0.115,                    !- Conductivity
    513,                      !- Density
    1381,                     !- Specific Heat
    0.9,                      !- Thermal Absorptance
    0.78,                     !- Solar Absorptance
    0.78;                     !- Visible Absorptance

Material,
    RG01,                     !- Name
    Rough,                    !- Roughness
    0.0127,                   !- Thickness
    1.442,                    !- Conductivity
    881,                      !- Density
    1674,                     !- Specific Heat
    0.9,                      !- Thermal Absorptance
    0.65,                     !- Solar Absorptance
    0.65;                     !- Visible Absorptance

Material,
    BR01,                     !- Name
    VeryRough,                !- Roughness
    0.0094999997,             !- Thickness
    0.162,                    !- Conductivity
    1121,                     !- Density
    1464,                     !- Specific Heat
    0.9,                      !- Thermal Absorptance
    0.7,                      !- Solar Absorptance
    0.7;                      !- Visible Absorptance

Material,
    IN46,                     !- Name
    VeryRough,                !- Roughness
    0.076200001,              !- Thickness
    0.023,                    !- Conductivity
    24,                       !- Density
    1590,                     !- Specific Heat
    0.9,                      !- Thermal Absorptance
    0.5,                      !- Solar Absorptance
    0.5;                      !- Visible Absorptance

Material,
    WD01,                     !- Name
    MediumSmooth,             !- Roughness
    0.019099999,              !- Thickness
    0.115,                    !- Conductivity
    513,                      !- Density
    1381,                     !- Specific Heat
    0.9,                      !- Thermal Absorptance
    0.78,                     !- Solar Absorptance
    0.78;                     !- Visible Absorptance

Material,
    PW03,                     !- Name
    MediumSmooth,             !- Roughness
    0.0127,                   !- Thickness
    0.115,                    !- Conductivity
    545,                      !- Density
    1213,                     !- Specific Heat
    0.9,                      !- Thermal Absorptance
    0.78,                     !- Solar Absorptance
    0.78;                     !- Visible Absorptance

Material,
    IN02,                     !- Name
    Rough,                    !- Roughness
    0.090099998,              !- Thickness
    0.043000001,              !- Conductivity
    10,                       !- Density
    837,                      !- Specific Heat
    0.9,                      !- Thermal Absorptance
    0.75,                     !- Solar Absorptance
    0.75;                     !- Visible Absorptance

Material,
    GP01,                     !- Name
    MediumSmooth,             !- Roughness
    0.0127,                   !- Thickness
    0.16,                     !- Conductivity
    801,                      !- Density
    837,                      !- Specific Heat
    0.9,                      !- Thermal Absorptance
    0.75,                     !- Solar Absorptance
    0.75;                     !- Visible Absorptance

Material,
    GP02,                     !- Name
    MediumSmooth,             !- Roughness
    0.015900001,              !- Thickness
    0.16,                     !- Conductivity
    801,                      !- Density
    837,                      !- Specific Heat
    0.9,                      !- Thermal Absorptance
    0.75,                     !- Solar Absorptance
    0.75;                     !- Visible Absorptance

Material,
    CC03,                     !- Name
    MediumRough,              !- Roughness
    0.1016,                   !- Thickness
    1.31,                     !- Conductivity
    2243,                     !- Density
    837,                      !- Specific Heat
    0.9,                      !- Thermal Absorptance
    0.65,                     !- Solar Absorptance
    0.65;                     !- Visible Absorptance

Material:NoMass,
    CP01,                     !- Name
    Rough,                    !- Roughness
    0.367,                    !- Thermal Resistance
    0.9,                      !- Thermal Absorptance
    0.75,                     !- Solar Absorptance
    0.75;                     !- Visible Absorptance

Material:NoMass,
    MAT-CLNG-1,               !- Name
    Rough,                    !- Roughness
    0.65225929,               !- Thermal Resistance
    0.65,                     !- Thermal Absorptance
    0.65,                     !- Solar Absorptance
    0.65;                     !- Visible Absorptance

Material:AirGap,
    AL21,                     !- Name
    0.157;                    !- Thermal Resistance

Material:AirGap,
    AL23,                     !- Name
    0.153;                    !- Thermal Resistance

WindowMaterial:Glazing,
    CLEAR 3MM,                !- Name
    SpectralAverage,          !- Optical Data Type
    ,                         !- Window Glass Spectral Data Set Name
    0.003,                    !- Thickness
    0.837,                    !- Solar Transmittance at Normal Incidence
    0.075,                    !- Front Side Solar Reflectance at Normal Incidence
    0.075,                    !- Back Side Solar Reflectance at Normal Incidence
    0.898,                    !- Visible Transmittance at Normal Incidence
    0.081,                    !- Front Side Visible Reflectance at Normal Incidence
    0.081,                    !- Back Side Visible Reflectance at Normal Incidence
    0,                        !- Infrared Transmittance at Normal Incidence
    0.84,                     !- Front Side Infrared Hemispherical Emissivity
    0.84,                     !- Back Side Infrared Hemispherical Emissivity
    0.9;                      !- Conductivity

WindowMaterial:Glazing,
    GREY 3MM,                 !- Name
    SpectralAverage,          !- Optical Data Type
    ,                         !- Window Glass Spectral Data Set Name
    0.003,                    !- Thickness
    0.626,                    !- Solar Transmittance at Normal Incidence
    0.061,                    !- Front Side Solar Reflectance at Normal Incidence
    0.061,                    !- Back Side Solar Reflectance at Normal Incidence
    0.611,                    !- Visible Transmittance at Normal Incidence
    0.061,                    !- Front Side Visible Reflectance at Normal Incidence
    0.061,                    !- Back Side Visible Reflectance at Normal Incidence
    0,                        !- Infrared Transmittance at Normal Incidence
    0.84,                     !- Front Side Infrared Hemispherical Emissivity
    0.84,                     !- Back Side Infrared Hemispherical Emissivity
    0.9;                      !- Conductivity

WindowMaterial:Glazing,
    CLEAR 6MM,                !- Name
    SpectralAverage,          !- Optical Data Type
    ,                         !- Window Glass Spectral Data Set Name
    0.006,                    !- Thickness
    0.775,                    !- Solar Transmittance at Normal Incidence
    0.071,                    !- Front Side Solar Reflectance at Normal Incidence
    0.071,                    !- Back Side Solar Reflectance at Normal Incidence
    0.881,                    !- Visible Transmittance at Normal Incidence
    0.08,                     !- Front Side Visible Reflectance at Normal Incidence
    0.08,                     !- Back Side Visible Reflectance at Normal Incidence
    0,                        !- Infrared Transmittance at Normal Incidence
    0.84,                     !- Front Side Infrared Hemispherical Emissivity
    0.84,                     !- Back Side Infrared Hemispherical Emissivity
    0.9;                      !- Conductivity

WindowMaterial:Glazing,
    LoE CLEAR 6MM,            !- Name
    SpectralAverage,          !- Optical Data Type
    ,                         !- Window Glass Spectral Data Set Name
    0.006,                    !- Thickness
    0.6,                      !- Solar Transmittance at Normal Incidence
    0.17,                     !- Front Side Solar Reflectance at Normal Incidence
    0.22,                     !- Back Side Solar Reflectance at Normal Incidence
    0.84,                     !- Visible Transmittance at Normal Incidence
    0.055,                    !- Front Side Visible Reflectance at Normal Incidence
    0.078,                    !- Back Side Visible Reflectance at Normal Incidence
    0,                        !- Infrared Transmittance at Normal Incidence
    0.84,                     !- Front Side Infrared Hemispherical Emissivity
    0.1,                      !- Back Side Infrared Hemispherical Emissivity
    0.9;                      !- Conductivity

WindowMaterial:Gas,
    AIR 6MM,                  !- Name
    Air,                      !- Gas Type
    0.0063;                   !- Thickness

WindowMaterial:Gas,
    AIR 13MM,                 !- Name
    Air,                      !- Gas Type
    0.0127;                   !- Thickness

WindowMaterial:Gas,
    ARGON 13MM,               !- Name
    Argon,                    !- Gas Type
    0.0127;                   !- Thickness

Construction,
    ROOF-1,                   !- Name
    RG01,                     !- Outside Layer
    BR01,                     !- Layer 2
    IN46,                     !- Layer 3
    WD01;                     !- Layer 4

Construction,
    WALL-1,                   !- Name
    WD01,                     !- Outside Layer
    PW03,                     !- Layer 2
    IN02,                     !- Layer 3
    GP01;                     !- Layer 4

Construction,
    CLNG-1,                   !- Name
    MAT-CLNG-1;               !- Outside Layer

Construction,
    FLOOR-SLAB-1,             !- Name
    CC03;                     !- Outside Layer

Construction,
    INT-WALL-1,               !- Name
    GP02,                     !- Outside Layer
    AL21,                     !- Layer 2
    GP02;                     !- Layer 3

Construction,
    Dbl Clr 3mm/13mm Air,     !- Name
    CLEAR 3MM,                !- Outside Layer
    AIR 13MM,                 !- Layer 2
    CLEAR 3MM;                !- Layer 3

Construction,
    Sgl Grey 3mm,             !- Name
    GREY 3MM;                 !- Outside Layer

GlobalGeometryRules,
    UpperLeftCorner,          !- Starting Vertex Position
    CounterClockWise,         !- Vertex Entry Direction
    Relative;                 !- Coordinate System

Zone,
    PLENUM-1,                 !- Name
    0,                        !- Direction of Relative North
    0,                        !- X Origin
    0,                        !- Y Origin
    0,                        !- Z Origin
    1,                        !- Type
    1,                        !- Multiplier
    0.609600067,              !- Ceiling Height
    283.2;                    !- Volume

Zone,
    SPACE1-1,                 !- Name
    0,                        !- Direction of Relative North
    0,                        !- X Origin
    0,                        !- Y Origin
    0,                        !- Z Origin
    1,                        !- Type
    1,                        !- Multiplier
    2.438400269,              !- Ceiling Height
    239.247360229;            !- Volume

Zone,
    SPACE2-1,                 !- Name
    0,                        !- Direction of Relative North
    0,                        !- X Origin
    0,                        !- Y Origin
    0,                        !- Z Origin
    1,                        !- Type
    1,                        !- Multiplier
    2.438400269,              !- Ceiling Height
    103.311355591;            !- Volume

Zone,
    SPACE3-1,                 !- Name
    0,                        !- Direction of Relative North
    0,                        !- X Origin
    0,                        !- Y Origin
    0,                        !- Z Origin
    1,                        !- Type
    1,                        !- Multiplier
    2.438400269,              !- Ceiling Height
    239.247360229;            !- Volume

Zone,
    SPACE4-1,                 !- Name
    0,                        !- Direction of Relative North
    0,                        !- X Origin
    0,                        !- Y Origin
    0,                        !- Z Origin
    1,                        !- Type
    1,                        !- Multiplier
    2.438400269,              !- Ceiling Height
    103.311355591;            !- Volume

Zone,
    SPACE5-1,                 !- Name
    0,                        !- Direction of Relative North
    0,                        !- X Origin
    0,                        !- Y Origin
    0,                        !- Z Origin
    1,                        !- Type
    1,                        !- Multiplier
    2.438400269,              !- Ceiling Height
    447.682556152;            !- Volume

BuildingSurface:Detailed,
    WALL-1PF,                 !- Name
    WALL,                     !- Surface Type
    WALL-1,                   !- Construction Name
    PLENUM-1,                 !- Zone Name
    ,                         !- Space Name
    Outdoors,                 !- Outside Boundary Condition
    ,                         !- Outside Boundary Condition Object
    SunExposed,               !- Sun Exposure
    WindExposed,              !- Wind Exposure
    0.5,                      !- View Factor to Ground
    4,                        !- Number of Vertices
    0,                        !- Vertex 1 Xcoordinate
    0,                        !- Vertex 1 Ycoordinate
    3,                        !- Vertex 1 Zcoordinate
    0,                        !- Vertex 2 Xcoordinate
    0,                        !- Vertex 2 Ycoordinate
    2.4,                      !- Vertex 2 Zcoordinate
    30.5,                     !- Vertex 3 Xcoordinate
    0,                        !- Vertex 3 Ycoordinate
    2.4,                      !- Vertex 3 Zcoordinate
    30.5,                     !- Vertex 4 Xcoordinate
    0,                        !- Vertex 4 Ycoordinate
    3;                        !- Vertex 4 Zcoordinate

BuildingSurface:Detailed,
    WALL-1PR,                 !- Name
    WALL,                     !- Surface Type
    WALL-1,                   !- Construction Name