!- Darwin Line endings 

Version,
    9.6;                      !- Version Identifier

WINDOWMATERIAL:GLAZINGGROUP:THERMOCHROMIC,
    Gumby,                    !- Name
    55,                       !- Optical Data Temperature 1
    G1,                       !- Window Material Glazing Name 1
    0,                        !- Optical Data Temperature 2
    G0,                       !- Window Material Glazing Name 2
    1,                        !- Optical Data Temperature 3
    G1,                       !- Window Material Glazing Name 3
    2,                        !- Optical Data Temperature 4
    G2,                       !- Window Material Glazing Name 4
    3,                        !- Optical Data Temperature 5
    G3,                       !- Window Material Glazing Name 5
    4,                        !- Optical Data Temperature 6
    G4,                       !- Window Material Glazing Name 6
    5,                        !- Optical Data Temperature 7
    G5,                       !- Window Material Glazing Name 7
    6,                        !- Optical Data Temperature 8
    G6,                       !- Window Material Glazing Name 8
    7,                        !- Optical Data Temperature 9
    G7,                       !- Window Material Glazing Name 9
    8,                        !- Optical Data Temperature 10
    G8,                       !- Window Material Glazing Name 10
    9,                        !- Optical Data Temperature 11
    G9,                       !- Window Material Glazing Name 11
    10,                       !- Optical Data Temperature 12
    G10,                      !- Window Material Glazing Name 12
    11,                       !- Optical Data Temperature 13
    G11,                      !- Window Material Glazing Name 13
    12,                       !- Optical Data Temperature 14
    G12,                      !- Window Material Glazing Name 14
    13,                       !- Optical Data Temperature 15
    G13,                      !- Window Material Glazing Name 15
    14,                       !- Optical Data Temperature 16
    G14,                      !- Window Material Glazing Name 16
    15,                       !- Optical Data Temperature 17
    G15,                      !- Window Material Glazing Name 17
    16,                       !- Optical Data Temperature 18
    G16,                      !- Window Material Glazing Name 18
    17,                       !- Optical Data Temperature 19
    G17,                      !- Window Material Glazing Name 19
    18,                       !- Optical Data Temperature 20
    G18,                      !- Window Material Glazing Name 20
    19,                       !- Optical Data Temperature 21
    G19,                      !- Window Material Glazing Name 21
    20,                       !- Optical Data Temperature 22
    G20,                      !- Window Material Glazing Name 22
    21,                       !- Optical Data Temperature 23
    G21,                      !- Window Material Glazing Name 23
    22,                       !- Optical Data Temperature 24
    G22,                      !- Window Material Glazing Name 24
    23,                       !- Optical Data Temperature 25
    G23,                      !- Window Material Glazing Name 25
    24,                       !- Optical Data Temperature 26
    G24,                      !- Window Material Glazing Name 26
    25,                       !- Optical Data Temperature 27
    G25,                      !- Window Material Glazing Name 27
    26,                       !- Optical Data Temperature 28
    G26,                      !- Window Material Glazing Name 28
    27,                       !- Optical Data Temperature 29
    G27,                      !- Window Material Glazing Name 29
    28,                       !- Optical Data Temperature 30
    G28,                      !- Window Material Glazing Name 30
    29,                       !- Optical Data Temperature 31
    G29,                      !- Window Material Glazing Name 31
    30,                       !- Optical Data Temperature 32
    G30,                      !- Window Material Glazing Name 32
    31,                       !- Optical Data Temperature 33
    G31,                      !- Window Material Glazing Name 33
    32,                       !- Optical Data Temperature 34
    G32,                      !- Window Material Glazing Name 34
    33,                       !- Optical Data Temperature 35
    G33,                      !- Window Material Glazing Name 35
    34,                       !- Optical Data Temperature 36
    G34,                      !- Window Material Glazing Name 36
    35,                       !- Optical Data Temperature 37
    G35,                      !- Window Material Glazing Name 37
    36,                       !- Optical Data Temperature 38
    G36,                      !- Window Material Glazing Name 38
    37,                       !- Optical Data Temperature 39
    G37,                      !- Window Material Glazing Name 39
    38,                       !- Optical Data Temperature 40
    G38,                      !- Window Material Glazing Name 40
    39,                       !- Optical Data Temperature 41
    G39,                      !- Window Material Glazing Name 41
    40,                       !- Optical Data Temperature 42
    G40,                      !- Window Material Glazing Name 42
    41,                       !- Optical Data Temperature 43
    G41,                      !- Window Material Glazing Name 43
    42,                       !- Optical Data Temperature 44
    G42,                      !- Window Material Glazing Name 44
    43,                       !- Optical Data Temperature 45
    G43,                      !- Window Material Glazing Name 45
    44,                       !- Optical Data Temperature 46
    G44,                      !- Window Material Glazing Name 46
    45,                       !- Optical Data Temperature 47
    G45,                      !- Window Material Glazing Name 47
    46,                       !- Optical Data Temperature 48
    G46,                      !- Window Material Glazing Name 48
    47,                       !- Optical Data Temperature 49
    G47,                      !- Window Material Glazing Name 49
    48,                       !- Optical Data Temperature 50
    G48,                      !- Window Material Glazing Name 50
    49,                       !- Optical Data Temperature 51
    G49,                      !- Window Material Glazing Name 51
    50,                       !- Optical Data Temperature 52
    G50,                      !- Window Material Glazing Name 52
    51,                       !- Optical Data Temperature 53
    G51,                      !- Window Material Glazing Name 53
    52,                       !- Optical Data Temperature 54
    G52,                      !- Window Material Glazing Name 54
    53,                       !- Optical Data Temperature 55
    G53,                      !- Window Material Glazing Name 55
    54,                       !- Optical Data Temperature 56
    G54,                      !- Window Material Glazing Name 56
    55,                       !- Optical Data Temperature 57
    G55,                      !- Window Material Glazing Name 57
    56,                       !- Optical Data Temperature 58
    G56,                      !- Window Material Glazing Name 58
    57,                       !- Optical Data Temperature 59
    G57,                      !- Window Material Glazing Name 59
    58,                       !- Optical Data Temperature 60
    G58,                      !- Window Material Glazing Name 60
    59,                       !- Optical Data Temperature 61
    G59,                      !- Window Material Glazing Name 61
    60,                       !- Optical Data Temperature 62
    G60,                      !- Window Material Glazing Name 62
    61,                       !- Optical Data Temperature 63
    G61,                      !- Window Material Glazing Name 63
    62,                       !- Optical Data Temperature 64
    G62,                      !- Window Material Glazing Name 64
    63,                       !- Optical Data Temperature 65
    G63,                      !- Window Material Glazing Name 65
    64,                       !- Optical Data Temperature 66
    G64,                      !- Window Material Glazing Name 66
    65,                       !- Optical Data Temperature 67
    G65,                      !- Window Material Glazing Name 67
    66,                       !- Optical Data Temperature 68
    G66,                      !- Window Material Glazing Name 68
    67,                       !- Optical Data Temperature 69
    G67,                      !- Window Material Glazing Name 69
    68,                       !- Optical Data Temperature 70
    G68,                      !- Window Material Glazing Name 70
    69,                       !- Optical Data Temperature 71
    G69,                      !- Window Material Glazing Name 71
    70,                       !- Optical Data Temperature 72
    G70,                      !- Window Material Glazing Name 72
    71,                       !- Optical Data Temperature 73
    G71,                      !- Window Material Glazing Name 73
    72,                       !- Optical Data Temperature 74
    G72,                      !- Window Material Glazing Name 74
    73,                       !- Optical Data Temperature 75
    G73,                      !- Window Material Glazing Name 75
    74,                       !- Optical Data Temperature 76
    G74,                      !- Window Material Glazing Name 76
    75,                       !- Optical Data Temperature 77
    G75,                      !- Window Material Glazing Name 77
    76,                       !- Optical Data Temperature 78
    G76,                      !- Window Material Glazing Name 78
    77,                       !- Optical Data Temperature 79
    G77,                      !- Window Material Glazing Name 79
    78,                       !- Optical Data Temperature 80
    G78,                      !- Window Material Glazing Name 80
    79,                       !- Optical Data Temperature 81
    G79,                      !- Window Material Glazing Name 81
    80,                       !- Optical Data Temperature 82
    G80,                      !- Window Material Glazing Name 82
    81,                       !- Optical Data Temperature 83
    G81,                      !- Window Material Glazing Name 83
    82,                       !- Optical Data Temperature 84
    G82,                      !- Window Material Glazing Name 84
    83,                       !- Optical Data Temperature 85
    G83,                      !- Window Material Glazing Name 85
    84,                       !- Optical Data Temperature 86
    G84,                      !- Window Material Glazing Name 86
    85,                       !- Optical Data Temperature 87
    G85,                      !- Window Material Glazing Name 87
    86,                       !- Optical Data Temperature 88
    G86,                      !- Window Material Glazing Name 88
    87,                       !- Optical Data Temperature 89
    G87,                      !- Window Material Glazing Name 89
    88,                       !- Optical Data Temperature 90
    G88,                      !- Window Material Glazing Name 90
    89,                       !- Optical Data Temperature 91
    G89,                      !- Window Material Glazing Name 91
    90,                       !- Optical Data Temperature 92
    G90,                      !- Window Material Glazing Name 92
    91,                       !- Optical Data Temperature 93
    G91,                      !- Window Material Glazing Name 93
    92,                       !- Optical Data Temperature 94
    G92,                      !- Window Material Glazing Name 94
    93,                       !- Optical Data Temperature 95
    G93,                      !- Window Material Glazing Name 95
    94,                       !- Optical Data Temperature 96
    G94,                      !- Window Material Glazing Name 96
    95,                       !- Optical Data Temperature 97
    G95,                      !- Window Material Glazing Name 97
    96,                       !- Optical Data Temperature 98
    G96,                      !- Window Material Glazing Name 98
    97,                       !- Optical Data Temperature 99
    G97,                      !- Window Material Glazing Name 99
    98,                       !- Optical Data Temperature 100
    G98,                      !- Window Material Glazing Name 100
    99,                       !- Optical Data Temperature 101
    G99,                      !- Window Material Glazing Name 101
    100,                      !- Optical Data Temperature 102
    G100,                     !- Window Material Glazing Name 102
    101,                      !- Optical Data Temperature 103
    G101,                     !- Window Material Glazing Name 103
    102,                      !- Optical Data Temperature 104
    G102,                     !- Window Material Glazing Name 104
    103,                      !- Optical Data Temperature 105
    G103,                     !- Window Material Glazing Name 105
    104,                      !- Optical Data Temperature 106
    G104,                     !- Window Material Glazing Name 106
    105,                      !- Optical Data Temperature 107
    G105,                     !- Window Material Glazing Name 107
    106,                      !- Optical Data Temperature 108
    G106,                     !- Window Material Glazing Name 108
    107,                      !- Optical Data Temperature 109
    G107,                     !- Window Material Glazing Name 109
    108,                      !- Optical Data Temperature 110
    G108,                     !- Window Material Glazing Name 110
    109,                      !- Optical Data Temperature 111
    G109,                     !- Window Material Glazing Name 111
    110,                      !- Optical Data Temperature 112
    G110,                     !- Window Material Glazing Name 112
    111,                      !- Optical Data Temperature 113
    G111,                     !- Window Material Glazing Name 113
    112,                      !- Optical Data Temperature 114
    G112,                     !- Window Material Glazing Name 114
    113,                      !- Optical Data Temperature 115
    G113,                     !- Window Material Glazing Name 115
    114,                      !- Optical Data Temperature 116
    G114,                     !- Window Material Glazing Name 116
    115,                      !- Optical Data Temperature 117
    G115,                     !- Window Material Glazing Name 117
    116,                      !- Optical Data Temperature 118
    G116,                     !- Window Material Glazing Name 118
    117,                      !- Optical Data Temperature 119
    G117,                     !- Window Material Glazing Name 119
    118,                      !- Optical Data Temperature 120
    G118,                     !- Window Material Glazing Name 120
    119,                      !- Optical Data Temperature 121
    G119,                     !- Window Material Glazing Name 121
    120,                      !- Optical Data Temperature 122
    G120,                     !- Window Material Glazing Name 122
    121,                      !- Optical Data Temperature 123
    G121,                     !- Window Material Glazing Name 123
    122,                      !- Optical Data Temperature 124
    G122,                     !- Window Material Glazing Name 124
    123,                      !- Optical Data Temperature 125
    G123,                     !- Window Material Glazing Name 125
    124,                      !- Optical Data Temperature 126
    G124,                     !- Window Material Glazing Name 126
    125,                      !- Optical Data Temperature 127
    G125,                     !- Window Material Glazing Name 127
    126,                      !- Optical Data Temperature 128
    G126,                     !- Window Material Glazing Name 128
    127,                      !- Optical Data Temperature 129
    G127,                     !- Window Material Glazing Name 129
    128,                      !- Optical Data Temperature 130
    G128,                     !- Window Material Glazing Name 130
    129,                      !- Optical Data Temperature 131
    G129,                     !- Window Material Glazing Name 131
    130,                      !- Optical Data Temperature 132
    G130,                     !- Window Material Glazing Name 132
    131,                      !- Optical Data Temperature 133
    G131,                     !- Window Material Glazing Name 133
    132,                      !- Optical Data Temperature 134
    G132,                     !- Window Material Glazing Name 134
    133,                      !- Optical Data Temperature 135
    G133,                     !- Window Material Glazing Name 135
    134,                      !- Optical Data Temperature 136
    G134,                     !- Window Material Glazing Name 136
    135,                      !- Optical Data Temperature 137
    G135,                     !- Window Material Glazing Name 137
    136,                      !- Optical Data Temperature 138
    G136,                     !- Window Material Glazing Name 138
    137,                      !- Optical Data Temperature 139
    G137,                     !- Window Material Glazing Name 139
    138,                      !- Optical Data Temperature 140
    G138,                     !- Window Material Glazing Name 140
    139,                      !- Optical Data Temperature 141
    G139,                     !- Window Material Glazing Name 141
    140,                      !- Optical Data Temperature 142
    G140,                     !- Window Material Glazing Name 142
    141,                      !- Optical Data Temperature 143
    G141,                     !- Window Material Glazing Name 143
    142,                      !- Optical Data Temperature 144
    G142,                     !- Window Material Glazing Name 144
    143,                      !- Optical Data Temperature 145
    G143,                     !- Window Material Glazing Name 145
    144,                      !- Optical Data Temperature 146
    G144,                     !- Window Material Glazing Name 146
    145,                      !- Optical Data Temperature 147
    G145,                     !- Window Material Glazing Name 147
    146,                      !- Optical Data Temperature 148
    G146,                     !- Window Material Glazing Name 148
    147,                      !- Optical Data Temperature 149
    G147,                     !- Window Material Glazing Name 149
    148,                      !- Optical Data Temperature 150
    G148,                     !- Window Material Glazing Name 150
    149,                      !- Optical Data Temperature 151
    G149,                     !- Window Material Glazing Name 151
    150,                      !- Optical Data Temperature 152
    G150,                     !- Window Material Glazing Name 152
    151,                      !- Optical Data Temperature 153
    G151,                     !- Window Material Glazing Name 153
    152,                      !- Optical Data Temperature 154
    G152,                     !- Window Material Glazing Name 154
    153,                      !- Optical Data Temperature 155
    G153,                     !- Window Material Glazing Name 155
    154,                      !- Optical Data Temperature 156
    G154,                     !- Window Material Glazing Name 156
    155,                      !- Optical Data Temperature 157
    G155,                     !- Window Material Glazing Name 157
    156,                      !- Optical Data Temperature 158
    G156,                     !- Window Material Glazing Name 158
    157,                      !- Optical Data Temperature 159
    G157,                     !- Window Material Glazing Name 159
    158,                      !- Optical Data Temperature 160
    G158,                     !- Window Material Glazing Name 160
    159,                      !- Optical Data Temperature 161
    G159,                     !- Window Material Glazing Name 161
    160,                      !- Optical Data Temperature 162
    G160,                     !- Window Material Glazing Name 162
    161,                      !- Optical Data Temperature 163
    G161,                     !- Window Material Glazing Name 163
    162,                      !- Optical Data Temperature 164
    G162,                     !- Window Material Glazing Name 164
    163,                      !- Optical Data Temperature 165
    G163,                     !- Window Material Glazing Name 165
    164,                      !- Optical Data Temperature 166
    G164,                     !- Window Material Glazing Name 166
    165,                      !- Optical Data Temperature 167
    G165,                     !- Window Material Glazing Name 167
    166,                      !- Optical Data Temperature 168
    G166,                     !- Window Material Glazing Name 168
    167,                      !- Optical Data Temperature 169
    G167,                     !- Window Material Glazing Name 169
    168,                      !- Optical Data Temperature 170
    G168,                     !- Window Material Glazing Name 170
    169,                      !- Optical Data Temperature 171
    G169,                     !- Window Material Glazing Name 171
    170,                      !- Optical Data Temperature 172
    G170,                     !- Window Material Glazing Name 172
    171,                      !- Optical Data Temperature 173
    G171,                     !- Window Material Glazing Name 173
    172,                      !- Optical Data Temperature 174
    G172,                     !- Window Material Glazing Name 174
    173,                      !- Optical Data Temperature 175
    G173,                     !- Window Material Glazing Name 175
    174,                      !- Optical Data Temperature 176
    G174,                     !- Window Material Glazing Name 176
    175,                      !- Optical Data Temperature 177
    G175,                     !- Window Material Glazing Name 177
    176,                      !- Optical Data Temperature 178
    G176,                     !- Window Material Glazing Name 178
    177,                      !- Optical Data Temperature 179
    G177,                     !- Window Material Glazing Name 179
    178,                      !- Optical Data Temperature 180
    G178,                     !- Window Material Glazing Name 180
    179,                      !- Optical Data Temperature 181
    G179,                     !- Window Material Glazing Name 181
    180,                      !- Optical Data Temperature 182
    G180,                     !- Window Material Glazing Name 182
    181,                      !- Optical Data Temperature 183
    G181,                     !- Window Material Glazing Name 183
    182,                      !- Optical Data Temperature 184
    G182,                     !- Window Material Glazing Name 184
    183,                      !- Optical Data Temperature 185
    G183,                     !- Window Material Glazing Name 185
    184,                      !- Optical Data Temperature 186
    G184,                     !- Window Material Glazing Name 186
    185,                      !- Optical Data Temperature 187
    G185,                     !- Window Material Glazing Name 187
    186,                      !- Optical Data Temperature 188
    G186,                     !- Window Material Glazing Name 188
    187,                      !- Optical Data Temperature 189
    G187,                     !- Window Material Glazing Name 189
    188,                      !- Optical Data Temperature 190
    G188,                     !- Window Material Glazing Name 190
    189,                      !- Optical Data Temperature 191
    G189,                     !- Window Material Glazing Name 191
    190,                      !- Optical Data Temperature 192
    G190,                     !- Window Material Glazing Name 192
    191,                      !- Optical Data Temperature 193
    G191,                     !- Window Material Glazing Name 193
    192,                      !- Optical Data Temperature 194
    G192,                     !- Window Material Glazing Name 194
    193,                      !- Optical Data Temperature 195
    G193,                     !- Window Material Glazing Name 195
    194,                      !- Optical Data Temperature 196
    G194,                     !- Window Material Glazing Name 196
    195,                      !- Optical Data Temperature 197
    G195,                     !- Window Material Glazing Name 197
    196,                      !- Optical Data Temperature 198
    G196,                     !- Window Material Glazing Name 198
    197,                      !- Optical Data Temperature 199
    G197,                     !- Window Material Glazing Name 199
    198,                      !- Optical Data Temperature 200
    G198,                     !- Window Material Glazing Name 200
    199,                      !- Optical Data Temperature 201
    G199,                     !- Window Material Glazing Name 201
    200,                      !- Optical Data Temperature 202
    G200,                     !- Window Material Glazing Name 202
    201,                      !- Optical Data Temperature 203
    G201,                     !- Window Material Glazing Name 203
    202,                      !- Optical Data Temperature 204
    G202,                     !- Window Material Glazing Name 204
    203,                      !- Optical Data Temperature 205
    G203,                     !- Window Material Glazing Name 205
    204,                      !- Optical Data Temperature 206
    G204,                     !- Window Material Glazing Name 206
    205,                      !- Optical Data Temperature 207
    G205,                     !- Window Material Glazing Name 207
    206,                      !- Optical Data Temperature 208
    G206,                     !- Window Material Glazing Name 208
    207,                      !- Optical Data Temperature 209
    G207,                     !- Window Material Glazing Name 209
    208,                      !- Optical Data Temperature 210
    G208,                     !- Window Material Glazing Name 210
    209,                      !- Optical Data Temperature 211
    G209,                     !- Window Material Glazing Name 211
    210,                      !- Optical Data Temperature 212
    G210,                     !- Window Material Glazing Name 212
    211,                      !- Optical Data Temperature 213
    G211,                     !- Window Material Glazing Name 213
    212,                      !- Optical Data Temperature 214
    G212,                     !- Window Material Glazing Name 214
    213,                      !- Optical Data Temperature 215
    G213,                     !- Window Material Glazing Name 215
    214,                      !- Optical Data Temperature 216
    G214,                     !- Window Material Glazing Name 216
    215,                      !- Optical Data Temperature 217
    G215,                     !- Window Material Glazing Name 217
    216,                      !- Optical Data Temperature 218
    G216,                     !- Window Material Glazing Name 218
    217,                      !- Optical Data Temperature 219
    G217,                     !- Window Material Glazing Name 219
    218,                      !- Optical Data Temperature 220
    G218,                     !- Window Material Glazing Name 220
    219,                      !- Optical Data Temperature 221
    G219,                     !- Window Material Glazing Name 221
    220,                      !- Optical Data Temperature 222
    G220,                     !- Window Material Glazing Name 222
    221,                      !- Optical Data Temperature 223
    G221,                     !- Window Material Glazing Name 223
    222,                      !- Optical Data Temperature 224
    G222,                     !- Window Material Glazing Name 224
    223,                      !- Optical Data Temperature 225
    G223,                     !- Window Material Glazing Name 225
    224,                      !- Optical Data Temperature 226
    G224,                     !- Window Material Glazing Name 226
    225,                      !- Optical Data Temperature 227
    G225,                     !- Window Material Glazing Name 227
    226,                      !- Optical Data Temperature 228
    G226,                     !- Window Material Glazing Name 228
    227,                      !- Optical Data Temperature 229
    G227,                     !- Window Material Glazing Name 229
    228,                      !- Optical Data Temperature 230
    G228,                     !- Window Material Glazing Name 230
    229,                      !- Optical Data Temperature 231
    G229,                     !- Window Material Glazing Name 231
    230,                      !- Optical Data Temperature 232
    G230,                     !- Window Material Glazing Name 232
    231,                      !- Optical Data Temperature 233
    G231,                     !- Window Material Glazing Name 233
    232,                      !- Optical Data Temperature 234
    G232,                     !- Window Material Glazing Name 234
    233,                      !- Optical Data Temperature 235