!-Generator IDFEditor 1.38a
!-Option SortedOrder

!-NOTE: All comments with '!-' are ignored by the IDFEditor and are generated automatically.
!-      Use '!' comments if they need to be retained when using the IDFEditor.


!-   ===========  ALL OBJECTS IN CLASS: VERSION ===========

Version,
    6.0;                     !- Version Identifier


!-   ===========  ALL OBJECTS IN CLASS: SIMULATIONCONTROL ===========

SimulationControl,
    Yes,                     !- Do Zone Sizing Calculation
    Yes,                     !- Do System Sizing Calculation
    Yes,                     !- Do Plant Sizing Calculation
    Yes,                     !- Run Simulation for Sizing Periods
    Yes;                     !- Run Simulation for Weather File Run Periods


!-   ===========  ALL OBJECTS IN CLASS: BUILDING ===========

Building,
    VAV_w_rht,               !- Name
    0.0000,                  !- North Axis {deg}
    City,                    !- Terrain
    0.0400,                  !- Loads Convergence Tolerance Value
    0.2000,                  !- Temperature Convergence Tolerance Value {deltaC}
    FullInteriorAndExterior, !- Solar Distribution
    25;                      !- Maximum Number of Warmup Days


!-   ===========  ALL OBJECTS IN CLASS: SHADOWCALCULATION ===========

ShadowCalculation,
    30,                      !- Calculation Frequency
    15000;                   !- Maximum Figures in Shadow Overlap Calculations


!-   ===========  ALL OBJECTS IN CLASS: SURFACECONVECTIONALGORITHM:INSIDE ===========

SurfaceConvectionAlgorithm:Inside,
    TARP;                    !- Algorithm


!-   ===========  ALL OBJECTS IN CLASS: SURFACECONVECTIONALGORITHM:OUTSIDE ===========

SurfaceConvectionAlgorithm:Outside,
    DOE-2;                   !- Algorithm


!-   ===========  ALL OBJECTS IN CLASS: HEATBALANCEALGORITHM ===========

HeatBalanceAlgorithm,
    ConductionTransferFunction,  !- Algorithm
    200.0000;                !- Surface Temperature Upper Limit


!-   ===========  ALL OBJECTS IN CLASS: ZONEAIRHEATBALANCEALGORITHM ===========

ZoneAirHeatBalanceAlgorithm,
    AnalyticalSolution;      !- Algorithm


!-   ===========  ALL OBJECTS IN CLASS: TIMESTEP ===========

Timestep,
    4;                       !- Number of Timesteps per Hour


!-   ===========  ALL OBJECTS IN CLASS: CONVERGENCELIMITS ===========

ConvergenceLimits,
    5,                       !- Minimum System Timestep {minutes}
    20;                      !- Maximum HVAC Iterations


!-   ===========  ALL OBJECTS IN CLASS: SITE:LOCATION ===========

Site:Location,
    New Delhi_Delhi_IND Design_Conditions,  !- Name
    28.58,                   !- Latitude {deg}
    77.2,                    !- Longitude {deg}
    5.5,                     !- Time Zone {hr}
    216.00;                  !- Elevation {m}


!-   ===========  ALL OBJECTS IN CLASS: SIZINGPERIOD:DESIGNDAY ===========

SizingPeriod:DesignDay,
    New Delhi Ann Htg 99.6% Condns DB,  !- Name
    6.3,                     !- Maximum Dry-Bulb Temperature {C}
    0.0,                     !- Daily Temperature Range {deltaC}
    6.3,                     !- Humidity Indicating Conditions at Maximum Dry-Bulb
    98757.,                  !- Barometric Pressure {Pa}
    0.5,                     !- Wind Speed {m/s}
    270,                     !- Wind Direction {deg}
    0.00,                    !- Sky Clearness
    0,                       !- Rain Indicator
    0,                       !- Snow Indicator
    21,                      !- Day of Month
    1,                       !- Month
    WinterDesignDay,         !- Day Type
    0,                       !- Daylight Saving Time Indicator
    WetBulb;                 !- Humidity Indicating Type

SizingPeriod:DesignDay,
    New Delhi Ann Clg .4% Condns DB=>MWB,  !- Name
    42,                      !- Maximum Dry-Bulb Temperature {C}
    9.7,                     !- Daily Temperature Range {deltaC}
    22.2,                    !- Humidity Indicating Conditions at Maximum Dry-Bulb
    98757.,                  !- Barometric Pressure {Pa}
    3.2,                     !- Wind Speed {m/s}
    320,                     !- Wind Direction {deg}
    1.00,                    !- Sky Clearness
    0,                       !- Rain Indicator
    0,                       !- Snow Indicator
    21,                      !- Day of Month
    6,                       !- Month
    SummerDesignDay,         !- Day Type
    0,                       !- Daylight Saving Time Indicator
    WetBulb;                 !- Humidity Indicating Type


!-   ===========  ALL OBJECTS IN CLASS: RUNPERIOD ===========

RunPeriod,
    ,                        !- Name
    6,                       !- Begin Month
    1,                       !- Begin Day of Month
    7,                       !- End Month
    1,                       !- End Day of Month
    Monday,                  !- Day of Week for Start Day
    No,                      !- Use Weather File Holidays and Special Days
    No,                      !- Use Weather File Daylight Saving Period
    No,                      !- Apply Weekend Holiday Rule
    Yes,                     !- Use Weather File Rain Indicators
    Yes,                     !- Use Weather File Snow Indicators
    1.0000;                  !- Number of Times Runperiod to be Repeated


!-   ===========  ALL OBJECTS IN CLASS: RUNPERIODCONTROL:SPECIALDAYS ===========

RunPeriodControl:SpecialDays,
    New Years Day,           !- Name
    January 1,               !- Start Date
    1,                       !- Duration {days}
    Holiday;                 !- Special Day Type

RunPeriodControl:SpecialDays,
    Veterans Day,            !- Name
    November 11,             !- Start Date
    1,                       !- Duration {days}
    Holiday;                 !- Special Day Type

RunPeriodControl:SpecialDays,
    Christmas,               !- Name
    December 25,             !- Start Date
    1,                       !- Duration {days}
    Holiday;                 !- Special Day Type

RunPeriodControl:SpecialDays,
    Independence Day,        !- Name
    July 4,                  !- Start Date
    1,                       !- Duration {days}
    Holiday;                 !- Special Day Type

RunPeriodControl:SpecialDays,
    MLK Day,                 !- Name
    3rd Monday in January,   !- Start Date
    1,                       !- Duration {days}
    Holiday;                 !- Special Day Type

RunPeriodControl:SpecialDays,
    Presidents Day,          !- Name
    3rd Monday in February,  !- Start Date
    1,                       !- Duration {days}
    Holiday;                 !- Special Day Type

RunPeriodControl:SpecialDays,
    Memorial Day,            !- Name
    Last Monday in May,      !- Start Date
    1,                       !- Duration {days}
    Holiday;                 !- Special Day Type

RunPeriodControl:SpecialDays,
    Labor Day,               !- Name
    1st Monday in September, !- Start Date
    1,                       !- Duration {days}
    Holiday;                 !- Special Day Type

RunPeriodControl:SpecialDays,
    Columbus Day,            !- Name
    2nd Monday in October,   !- Start Date
    1,                       !- Duration {days}
    Holiday;                 !- Special Day Type

RunPeriodControl:SpecialDays,
    Thanksgiving,            !- Name
    4th Thursday in November,!- Start Date
    1,                       !- Duration {days}
    Holiday;                 !- Special Day Type


!-   ===========  ALL OBJECTS IN CLASS: RUNPERIODCONTROL:DAYLIGHTSAVINGTIME ===========

RunPeriodControl:DaylightSavingTime,
    2nd Sunday in March,     !- Start Date
    1st Sunday in November;  !- End Date


!-   ===========  ALL OBJECTS IN CLASS: SITE:GROUNDTEMPERATURE:BUILDINGSURFACE ===========

Site:GroundTemperature:BuildingSurface,
    23.067,                  !- January Ground Temperature {C}
    22.890,                  !- February Ground Temperature {C}
    23.120,                  !- March Ground Temperature {C}
    23.184,                  !- April Ground Temperature {C}
    23.193,                  !- May Ground Temperature {C}
    23.215,                  !- June Ground Temperature {C}
    23.234,                  !- July Ground Temperature {C}
    23.214,                  !- August Ground Temperature {C}
    23.239,                  !- September Ground Temperature {C}
    23.241,                  !- October Ground Temperature {C}
    23.244,                  !- November Ground Temperature {C}
    22.977;                  !- December Ground Temperature {C}


!-   ===========  ALL OBJECTS IN CLASS: SITE:WATERMAINSTEMPERATURE ===========

Site:WaterMainsTemperature,
    CORRELATION,             !- Calculation Method
    ,                        !- Temperature Schedule Name
    25.35,                   !- Annual Average Outdoor Air Temperature {C}
    9.10;                    !- Maximum Difference In Monthly Average Outdoor Air Temperatures {deltaC}


!-   ===========  ALL OBJECTS IN CLASS: SCHEDULETYPELIMITS ===========

ScheduleTypeLimits,
    Any Number;              !- Name

ScheduleTypeLimits,
    Fraction,                !- Name
    0.0,                     !- Lower Limit Value
    1.0,                     !- Upper Limit Value
    CONTINUOUS;              !- Numeric Type

ScheduleTypeLimits,
    Temperature,             !- Name
    -60,                     !- Lower Limit Value
    200,                     !- Upper Limit Value
    CONTINUOUS;              !- Numeric Type

ScheduleTypeLimits,
    On/Off,                  !- Name
    0,                       !- Lower Limit Value
    1,                       !- Upper Limit Value
    DISCRETE;                !- Numeric Type

ScheduleTypeLimits,
    Control Type,            !- Name
    0,                       !- Lower Limit Value
    4,                       !- Upper Limit Value
    DISCRETE;                !- Numeric Type

ScheduleTypeLimits,
    Humidity,                !- Name
    10,                      !- Lower Limit Value
    90,                      !- Upper Limit Value
    CONTINUOUS;              !- Numeric Type

ScheduleTypeLimits,
    Number;                  !- Name

ScheduleTypeLimits,
    HVACTemplate Any Number; !- Name


!-   ===========  ALL OBJECTS IN CLASS: SCHEDULE:COMPACT ===========

Schedule:Compact,
    BLDG_ELEVATORS,          !- Name
    Fraction,                !- Schedule Type Limits Name
    Through: 12/31,          !- Field 1
    For: Weekdays SummerDesignDay,  !- Field 2
    Until: 07:00,            !- Field 3
    0.0,                     !- Field 4
    Until: 08:00,            !- Field 5
    0.35,                    !- Field 6
    Until: 09:00,            !- Field 7
    0.69,                    !- Field 8
    Until: 10:00,            !- Field 9
    0.43,                    !- Field 10
    Until: 11:00,            !- Field 11
    0.37,                    !- Field 12
    Until: 12:00,            !- Field 13
    0.43,                    !- Field 14
    Until: 13:00,            !- Field 15
    0.58,                    !- Field 16
    Until: 14:00,            !- Field 17
    0.48,                    !- Field 18
    Until: 15:00,            !- Field 19
    0.37,                    !- Field 20
    Until: 16:00,            !- Field 21
    0.37,                    !- Field 22
    Until: 17:00,            !- Field 23
    0.46,                    !- Field 24
    Until: 18:00,            !- Field 25
    0.62,                    !- Field 26
    Until: 19:00,            !- Field 27
    0.12,                    !- Field 28
    Until: 20:00,            !- Field 29
    0.04,                    !- Field 30
    Until: 21:00,            !- Field 31
    0.04,                    !- Field 32
    Until: 24:00,            !- Field 33
    0.00,                    !- Field 34
    For: Saturday WinterDesignDay,  !- Field 35
    Until: 07:00,            !- Field 36
    0.0,                     !- Field 37
    Until: 08:00,            !- Field 38
    0.16,                    !- Field 39
    Until: 09:00,            !- Field 40
    0.14,                    !- Field 41
    Until: 10:00,            !- Field 42
    0.21,                    !- Field 43
    Until: 11:00,            !- Field 44
    0.18,                    !- Field 45
    Until: 12:00,            !- Field 46
    0.25,                    !- Field 47
    Until: 13:00,            !- Field 48
    0.21,                    !- Field 49
    Until: 14:00,            !- Field 50
    0.13,                    !- Field 51
    Until: 15:00,            !- Field 52
    0.08,                    !- Field 53
    Until: 16:00,            !- Field 54
    0.04,                    !- Field 55
    Until: 17:00,            !- Field 56
    0.05,                    !- Field 57
    Until: 18:00,            !- Field 58
    0.06,                    !- Field 59
    Until: 24:00,            !- Field 60
    0.00,                    !- Field 61
    For: Sunday Holidays AllOtherDays,  !- Field 62
    Until: 24:00,            !- Field 63
    0.0;                     !- Field 64

Schedule:Compact,
    INFIL_SCH,               !- Name
    Fraction,                !- Schedule Type Limits Name
    Through: 12/31,          !- Field 1
    For: Weekdays SummerDesignDay,  !- Field 2
    Until: 06:00,            !- Field 3
    1.0,                     !- Field 4
    Until: 22:00,            !- Field 5
    0.0,                     !- Field 6
    Until: 24:00,            !- Field 7
    1.0,                     !- Field 8
    For: Saturday WinterDesignDay,  !- Field 9
    Until: 06:00,            !- Field 10
    1.0,                     !- Field 11
    Until: 18:00,            !- Field 12
    0.0,                     !- Field 13
    Until: 24:00,            !- Field 14
    1.0,                     !- Field 15
    For: Sunday Holidays AllOtherDays,  !- Field 16
    Until: 24:00,            !- Field 17
    1.0;                     !- Field 18

Schedule:Compact,
    INFIL_HALF_ON_SCH,       !- Name
    Fraction,                !- Schedule Type Limits Name
    Through: 12/31,          !- Field 1
    For: Weekdays SummerDesignDay,  !- Field 2
    Until: 06:00,            !- Field 3
    1.0,                     !- Field 4
    Until: 22:00,            !- Field 5
    0.5,                     !- Field 6
    Until: 24:00,            !- Field 7
    1.0,                     !- Field 8
    For: Saturday WinterDesignDay,  !- Field 9
    Until: 06:00,            !- Field 10
    1.0,                     !- Field 11
    Until: 18:00,            !- Field 12
    0.5,                     !- Field 13
    Until: 24:00,            !- Field 14
    1.0,                     !- Field 15
    For: Sunday Holidays AllOtherDays,  !- Field 16
    Until: 24:00,            !- Field 17
    1.0;                     !- Field 18

Schedule:Compact,
    INFIL_QUARTER_ON_SCH,    !- Name
    Fraction,                !- Schedule Type Limits Name
    Through: 12/31,          !- Field 1
    For: Weekdays SummerDesignDay,  !- Field 2
    Until: 06:00,            !- Field 3
    1.0,                     !- Field 4
    Until: 22:00,            !- Field 5
    0.25,                    !- Field 6
    Until: 24:00,            !- Field 7
    1.0,                     !- Field 8
    For: Saturday WinterDesignDay,  !- Field 9
    Until: 06:00,            !- Field 10
    1.0,                     !- Field 11
    Until: 18:00,            !- Field 12
    0.25,                    !- Field 13
    Until: 24:00,            !- Field 14
    1.0,                     !- Field 15
    For: Sunday Holidays AllOtherDays,  !- Field 16
    Until: 24:00,            !- Field 17
    1.0;                     !- Field 18

Schedule:Compact,
    BLDG_SWH_SCH,            !- Name
    Fraction,                !- Schedule Type Limits Name
    Through: 12/31,          !- Field 1
    For: Weekdays SummerDesignDay,  !- Field 2
    Until: 05:00,            !- Field 3
    0.05,                    !- Field 4
    Until: 06:00,            !- Field 5
    0.08,                    !- Field 6
    Until: 07:00,            !- Field 7
    0.07,                    !- Field 8
    Until: 08:00,            !- Field 9
    0.19,                    !- Field 10
    Until: 09:00,            !- Field 11
    0.35,                    !- Field 12
    Until: 10:00,            !- Field 13
    0.38,                    !- Field 14
    Until: 11:00,            !- Field 15
    0.39,                    !- Field 16
    Until: 12:00,            !- Field 17
    0.47,                    !- Field 18
    Until: 13:00,            !- Field 19
    0.57,                    !- Field 20
    Until: 14:00,            !- Field 21
    0.54,                    !- Field 22
    Until: 15:00,            !- Field 23
    0.34,                    !- Field 24
    Until: 16:00,            !- Field 25
    0.33,                    !- Field 26
    Until: 17:00,            !- Field 27
    0.44,                    !- Field 28
    Until: 18:00,            !- Field 29
    0.26,                    !- Field 30
    Until: 19:00,            !- Field 31
    0.21,                    !- Field 32
    Until: 20:00,            !- Field 33
    0.15,                    !- Field 34
    Until: 21:00,            !- Field 35
    0.17,                    !- Field 36
    Until: 22:00,            !- Field 37
    0.08,                    !- Field 38
    Until: 24:00,            !- Field 39
    0.05,                    !- Field 40
    For: Saturday WinterDesignDay,  !- Field 41
    Until: 05:00,            !- Field 42
    0.05,                    !- Field 43
    Until: 06:00,            !- Field 44
    0.08,                    !- Field 45
    Until: 07:00,            !- Field 46
    0.07,                    !- Field 47
    Until: 08:00,            !- Field 48
    0.11,                    !- Field 49
    Until: 09:00,            !- Field 50
    0.15,                    !- Field 51
    Until: 10:00,            !- Field 52
    0.21,                    !- Field 53
    Until: 11:00,            !- Field 54
    0.19,                    !- Field 55
    Until: 12:00,            !- Field 56
    0.23,                    !- Field 57
    Until: 13:00,            !- Field 58
    0.20,                    !- Field 59
    Until: 14:00,            !- Field 60
    0.19,                    !- Field 61
    Until: 15:00,            !- Field 62
    0.15,                    !- Field 63
    Until: 16:00,            !- Field 64
    0.13,                    !- Field 65
    Until: 17:00,            !- Field 66
    0.14,                    !- Field 67
    Until: 21:00,            !- Field 68
    0.07,                    !- Field 69
    Until: 22:00,            !- Field 70
    0.09,                    !- Field 71
    Until: 24:00,            !- Field 72
    0.05,                    !- Field 73
    For: Sunday Holidays AllOtherDays,  !- Field 74
    Until: 05:00,            !- Field 75
    0.04,                    !- Field 76
    Until: 06:00,            !- Field 77
    0.07,                    !- Field 78
    Until: 11:00,            !- Field 79
    0.04,                    !- Field 80
    Until: 13:00,            !- Field 81
    0.06,                    !- Field 82
    Until: 14:00,            !- Field 83
    0.09,                    !- Field 84
    Until: 15:00,            !- Field 85
    0.06,                    !- Field 86
    Until: 21:00,            !- Field 87
    0.04,                    !- Field 88
    Until: 22:00,            !- Field 89
    0.07,                    !- Field 90
    Until: 24:00,            !- Field 91
    0.04;                    !- Field 92

Schedule:Compact,
    Hours_of_operation,      !- Name
    On/Off,                  !- Schedule Type Limits Name
    Through: 12/31,          !- Field 1
    For: Weekdays SummerDesignDay,  !- Field 2
    Until: 06:00,            !- Field 3
    0.0,                     !- Field 4
    Until: 22:00,            !- Field 5
    1.0,                     !- Field 6
    Until: 24:00,            !- Field 7
    0.0,                     !- Field 8
    For: Saturday WinterDesignDay,  !- Field 9
    Until: 06:00,            !- Field 10
    0.0,                     !- Field 11
    Until: 18:00,            !- Field 12
    1.0,                     !- Field 13
    Until: 24:00,            !- Field 14
    0.0,                     !- Field 15
    For: Sunday Holidays AllOtherDays,  !- Field 16
    Until: 24:00,            !- Field 17
    0.0;                     !- Field 18

Schedule:Compact,
    ALWAYS_ON,               !- Name
    Fraction,                !- Schedule Type Limits Name
    Through: 12/31,          !- Field 1
    For: AllDays,            !- Field 2
    Until: 24:00,            !- Field 3
    1.0;                     !- Field 4

Schedule:Compact,
    ALWAYS_OFF,              !- Name
    Fraction,                !- Schedule Type Limits Name
    Through: 12/31,          !- Field 1
    For: AllDays,            !- Field 2
    Until: 24:00,            !- Field 3
    0.0;                     !- Field 4

Schedule:Compact,
    HVACOperationSchd,       !- Name
    On/Off,                  !- Schedule Type Limits Name
    Through: 12/31,          !- Field 1
    For: Weekdays SummerDesignDay,  !- Field 2
    Until: 06:00,            !- Field 3
    0.0,                     !- Field 4
    Until: 22:00,            !- Field 5
    1.0,                     !- Field 6
    Until: 24:00,            !- Field 7
    0.0,                     !- Field 8
    For: Saturday WinterDesignDay,  !- Field 9
    Until: 06:00,            !- Field 10
    0.0,                     !- Field 11
    Until: 18:00,            !- Field 12
    1.0,                     !- Field 13
    Until: 24:00,            !- Field 14
    0.0,                     !- Field 15
    For: Sunday Holidays AllOtherDays,  !- Field 16
    Until: 24:00,            !- Field 17
    0.0;                     !- Field 18

Schedule:Compact,
    PlantOnSched,            !- Name
    On/Off,                  !- Schedule Type Limits Name
    Through: 12/31,          !- Field 1
    For: AllDays,            !- Field 2
    Until: 24:00,            !- Field 3
    1.0;                     !- Field 4

Schedule:Compact,
    FAN_SCH,                 !- Name
    Fraction,                !- Schedule Type Limits Name
    Through: 12/31,          !- Field 1
    For: AllDays,            !- Field 2
    Until: 24:00,            !- Field 3
    1.0;                     !- Field 4

Schedule:Compact,
    ReheatCoilAvailSched,    !- Name
    Fraction,                !- Schedule Type Limits Name
    Through: 12/31,          !- Field 1
    For: AllDays,            !- Field 2
    Until: 24:00,            !- Field 3
    1.0;                     !- Field 4

Schedule:Compact,
    CoolingCoilAvailSched,   !- Name
    Fraction,                !- Schedule Type Limits Name
    Through: 12/31,          !- Field 1
    For: AllDays,            !- Field 2
    Until: 24:00,            !- Field 3
    1.0;                     !- Field 4

Schedule:Compact,
    Humidity Setpoint Schedule,  !- Name
    Humidity,                !- Schedule Type Limits Name
    Through: 12/31,          !- Field 1
    For: Weekdays SummerDesignDay,  !- Field 2
    Until: 24:00,            !- Field 3
    50,                      !- Field 4
    For: Saturday WinterDesignDay,  !- Field 5
    Until: 24:00,            !- Field 6
    50,                      !- Field 7
    For: Sunday Holidays AllOtherDays,  !- Field 8
    Until: 24:00,            !- Field 9
    50;                      !- Field 10

Schedule:Compact,
    MinRelHumSetSch,         !- Name
    Humidity,                !- Schedule Type Limits Name
    Through: 12/31,          !- Field 1
    For: AllDays,            !- Field 2
    Until: 24:00,            !- Field 3
    30;                      !- Field 4

Schedule:Compact,
    MaxRelHumSetSch,         !- Name
    Humidity,                !- Schedule Type Limits Name
    Through: 12/31,          !- Field 1
    For: AllDays,            !- Field 2
    Until: 24:00,            !- Field 3
    60;                      !- Field 4

Schedule:Compact,
    MinOA_MotorizedDamper_Sched,  !- Name
    Fraction,                !- Schedule Type Limits Name
    Through: 12/31,          !- Field 1
    For: Weekdays SummerDesignDay,  !- Field 2
    Until: 07:00,            !- Field 3
    0.0,                     !- Field 4
    Until: 22:00,            !- Field 5
    1.0,                     !- Field 6
    Until: 24:00,            !- Field 7
    0.0,                     !- Field 8
    For: Saturday WinterDesignDay,  !- Field 9
    Until: 07:00,            !- Field 10
    0.0,                     !- Field 11
    Until: 18:00,            !- Field 12
    1.0,                     !- Field 13
    Until: 24:00,            !- Field 14
    0.0,                     !- Field 15
    For: Sunday Holidays AllOtherDays,  !- Field 16
    Until: 24:00,            !- Field 17
    0.0;                     !- Field 18

Schedule:Compact,
    MinOA_Sched,             !- Name
    Fraction,                !- Schedule Type Limits Name
    Through: 12/31,          !- Field 1
    For: AllDays,            !- Field 2
    Until: 24:00,            !- Field 3
    1.0;                     !- Field 4

Schedule:Compact,
    Dual Zone Control Type Sched,  !- Name
    Control Type,            !- Schedule Type Limits Name
    Through: 12/31,          !- Field 1
    For: AllDays,            !- Field 2
    Until: 24:00,            !- Field 3
    4;                       !- Field 4

Schedule:Compact,
    Seasonal-Reset-Supply-Air-Temp-Sch,  !- Name
    Temperature,             !- Schedule Type Limits Name
    Through: 3/31,           !- Field 1
    For: AllDays,            !- Field 2
    Until: 24:00,            !- Field 3
    22,                      !- Field 4
    Through: 9/30,           !- Field 5
    For: AllDays,            !- Field 6
    Until: 24:00,            !- Field 7
    18,                      !- Field 8
    Through: 12/31,          !- Field 9
    For: AllDays,            !- Field 10
    Until: 24:00,            !- Field 11
    22;                      !- Field 12

Schedule:Compact,
    CW-Loop-Temp-Schedule,   !- Name
    Temperature,             !- Schedule Type Limits Name
    Through: 12/31,          !- Field 1
    For: AllDays,            !- Field 2
    Until: 24:00,            !- Field 3
    6.7;                     !- Field 4

Schedule:Compact,
    HW-Loop-Temp-Schedule,   !- Name
    Temperature,             !- Schedule Type Limits Name
    Through: 12/31,          !- Field 1
    For: AllDays,            !- Field 2
    Until: 24:00,            !- Field 3
    60.;                     !- Field 4

Schedule:Compact,
    Heating-Supply-Air-Temp-Sch,  !- Name
    Temperature,             !- Schedule Type Limits Name
    Through: 12/31,          !- Field 1
    For: AllDays,            !- Field 2
    Until: 24:00,            !- Field 3
    16.0;                    !- Field 4

Schedule:Compact,
    ACTIVITY_SCH,            !- Name
    Any Number,              !- Schedule Type Limits Name
    Through: 12/31,          !- Field 1
    For: AllDays,            !- Field 2
    Until: 24:00,            !- Field 3
    120.;                    !- Field 4

Schedule:Compact,
    WORK_EFF_SCH,            !- Name
    Fraction,                !- Schedule Type Limits Name
    Through: 12/31,          !- Field 1
    For: AllDays,            !- Field 2
    Until: 24:00,            !- Field 3
    0.0;                     !- Field 4

Schedule:Compact,
    AIR_VELO_SCH,            !- Name
    Any Number,              !- Schedule Type Limits Name
    Through: 12/31,          !- Field 1
    For: AllDays,            !- Field 2
    Until: 24:00,            !- Field 3
    0.2;                     !- Field 4

Schedule:Compact,
    CLOTHING_SCH,            !- Name
    Any Number,              !- Schedule Type Limits Name
    Through: 04/30,          !- Field 1
    For: AllDays,            !- Field 2
    Until: 24:00,            !- Field 3
    1.0,                     !- Field 4
    Through: 09/30,          !- Field 5
    For: AllDays,            !- Field 6
    Until: 24:00,            !- Field 7
    0.5,                     !- Field 8
    Through: 12/31,          !- Field 9
    For: AllDays,            !- Field 10
    Until: 24:00,            !- Field 11
    1.0;                     !- Field 12

Schedule:Compact,
    SHADING_SCH,             !- Name
    Any Number,              !- Schedule Type Limits Name
    Through: 12/31,          !- Field 1
    For: AllDays,            !- Field 2
    Until: 24:00,            !- Field 3
    0.0;                     !- Field 4

Schedule:Compact,
    BLDG_LIGHT_SCH,          !- Name
    Fraction,                !- Schedule Type Limits Name
    Through: 12/31,          !- Field 1
    For: Weekdays,           !- Field 2
    Until: 05:00,            !- Field 3
    0.05,                    !- Field 4
    Until: 07:00,            !- Field 5
    .715,                    !- Field 6
    Until: 09:00,            !- Field 7
    .87,                     !- Field 8
    Until: 18:00,            !- Field 9
    0.9,                     !- Field 10
    Until: 19:00,            !- Field 11
    .8984,                   !- Field 12