!-Generator IDFEditor 1.38a
!-Option SortedOrder UseSpecialFormat

!-NOTE: All comments with '!-' are ignored by the IDFEditor and are generated automatically.
!-      Use '!' comments if they need to be retained when using the IDFEditor.


!-   ===========  ALL OBJECTS IN CLASS: VERSION ===========

! Generated by EPXMLPreproc2 (Windows 32 Version 0.1.2.32)
! Created on 06/10/2010 20:28:15
!***** This data and software ("Data") is provided by the National Renewable *****
!***** Energy Laboratory ("NREL"), which is operated by the Alliance for *****
!***** Sustainable Energy, LLC ("ALLIANCE") for the U.S. Department Of *****
!***** Energy ("DOE"). *****
!***** Access to and use of these Data shall impose the following obligations *****
!***** on the user, as set forth in this Agreement.  The user is granted the *****
!***** right, without any fee or cost, to use, copy, modify, alter, enhance *****
!***** and distribute these Data for any purpose whatsoever, provided that this *****
!***** entire notice appears in all copies of the Data.  Further, the user *****
!***** agrees to credit DOE/NREL/ALLIANCE in any publication that results from *****
!***** the use of these Data.  The names DOE/NREL/ALLIANCE, however, may not *****
!***** be used in any advertising or publicity to endorse or promote any products *****
!***** or commercial entities unless specific written permission is obtained from *****
!***** DOE/NREL/ ALLIANCE.  The user also understands that DOE/NREL/Alliance is *****
!***** not obligated to provide the user with any support, consulting, training *****
!***** or assistance of any kind with regard to the use of these Data or to *****
!***** provide the user with any updates, revisions or new versions of these Data. *****
!***** YOU AGREE TO INDEMNIFY DOE/NREL/Alliance, AND ITS SUBSIDIARIES, AFFILIATES, *****
!***** OFFICERS, AGENTS, AND EMPLOYEES AGAINST ANY CLAIM OR DEMAND, INCLUDING *****
!***** 'REASONABLE ATTORNEYS' FEES, RELATED TO YOUR USE OF THESE DATA.  THESE DATA *****
!***** ARE PROVIDED BY DOE/NREL/Alliance "AS IS" AND ANY EXPRESS OR IMPLIED *****
!***** WARRANTIES, INCLUDING BUT NOT LIMITED TO, THE IMPLIED WARRANTIES OF *****
!***** MERCHANTABILITY AND FITNESS FOR A PARTICULAR PURPOSE ARE DISCLAIMED.  IN *****
!***** NO EVENT SHALL DOE/NREL/ALLIANCE BE LIABLE FOR ANY SPECIAL, INDIRECT OR *****
!***** CONSEQUENTIAL DAMAGES OR ANY DAMAGES WHATSOEVER, INCLUDING BUT NOT LIMITED *****
!***** TO CLAIMS ASSOCIATED WITH THE LOSS OF DATA OR PROFITS, WHICH MAY RESULT *****
!***** FROM AN ACTION IN CONTRACT, NEGLIGENCE OR OTHER TORTIOUS CLAIM THAT *****
!***** ARISES OUT OF OR IN CONNECTION WITH THE ACCESS, USE OR PERFORMANCE OF *****
!***** THESE DATA. *****
! Building Description
! VAV_w_rht
! Start SimMetaData
! WeatherFileName=USA_FL_Key.West_TMY2.epw
! RoofConstruction=Insulation Entirely Above Deck
! ExtWallConstruction=Steel-Framed
! End SimMetaData
! Start WebInterface Parameters
! EMAIL_ADDRESS=JAG@METROVALLEY.IN
! APPENDIX_G_TYPES=8
! AVERAGE_INFILTRATION_RATE_INPUT=SmartDefault
! BACK_FIN_OFFSET=0.0
! BACK_FIN_PROJECTION_FACTOR=0.00
! BACK_GLAZING_PERCENTAGE=60
! BACK_OVERHANG_OFFSET=0.0
! BACK_OVERHANG_PROJECTION_FACTOR=0.00
! BUILDING_DESCRIPTION=VAV_w_rht
! BUILDING_FENESTRATION_INPUT=CUSTOM
! BUILDING_TYPE=Office/Professional
! CELL_EFFICIENCY=10.0
! CITY=KEY WEST
! CONTROL_TYPE=Continuous
! COOLING_COP_INPUT=SmartDefault
! COUNTRY=USA
! COVERAGE_SURFACES=Roof Only
! DAYLIGHTING_ILLUMINANCE_SETPOINT=300
! ECONOMIZER=1
! ELECTRICAL_PLUG_INTENSITY=10.76
! ELECTRICAL_PLUG_INTENSITY_INPUT=CUSTOM
! ENERGYPLUSVERSION=5.0
! EXTERIOR_LIGHTING=0
! EXTERIOR_LIGHTING_INPUT=CUSTOM
! FAN_STATIC_PRESSURE_INPUT=SmartDefault
! FLOOR_TO_FLOOR_HEIGHT=3
! FRONT_FIN_OFFSET=0.0
! FRONT_FIN_PROJECTION_FACTOR=0.00
! FRONT_GLAZING_PERCENTAGE=50
! FRONT_OVERHANG_OFFSET=0.0
! FRONT_OVERHANG_PROJECTION_FACTOR=1
! GAS_APPLIANCE_INTENSITY=0
! GAS_APPLIANCE_INTENSITY_INPUT=CUSTOM
! GEOCHG=false
! GEOMETRY_CONFIGURATION=1
! HEATING_COP_INPUT=SmartDefault
! HEATING_EFFICIENCY_INPUT=SmartDefault
! HVAC_TYPE=1
! IDF_UPLOAD=0
! INSTALLATION_TYPE=1
! INSTALLATION_TYPE_CAPACITY=0.00
! INSTALLATION_TYPE_PERCENT=5
! INVERTER_EFFICIENCY=89
! LEFT_FIN_OFFSET=0.0
! LEFT_FIN_PROJECTION_FACTOR=0.00
! LEFT_GLAZING_PERCENTAGE=0
! LEFT_OVERHANG_OFFSET=0.0
! LEFT_OVERHANG_PROJECTION_FACTOR=0.00
! LENGTH_1=61
! LIGHT_INTENSITY=8
! LIGHT_INTENSITY_INPUT=CUSTOM
! MODEL=Detailed
! MOTORIZED_DAMPER=1
! NUMBER_OF_FLOORS=5
! NUMBER_OF_STEPS=3
! ORIENTATION=0
! OUTSIDE_AIR_VENTILATION_PER_AREA_INPUT=SmartDefault
! OUTSIDE_AIR_VENTILATION_PER_PERSON_INPUT=SmartDefault
! PEOPLE_DENSITY=10
! PEOPLE_DENSITY_INPUT=CUSTOM
! RIGHT_FIN_OFFSET=0.0
! RIGHT_FIN_PROJECTION_FACTOR=0.00
! RIGHT_GLAZING_PERCENTAGE=0
! RIGHT_OVERHANG_OFFSET=0.0
! RIGHT_OVERHANG_PROJECTION_FACTOR=0.00
! ROOF_TYPE_INPUT=SmartDefault
! STATE=FL
! STORAGE_SET_POINT=60
! STORAGE_SET_POINT_TEMP=80
! STORAGE_SET_POINT_TYPE=Natural Gas
! TARGETED_STANDARD=ASHRAE 90.1-2007
! TOTAL_FAN_EFFICIENCY_INPUT=SmartDefault
! VERSION=5.0
! WALL_TYPE_INPUT=SmartDefault
! WATER_USE=0.0000
! WATER_USE_PER=per hour
! WATER_USE_TEMP=40
! WEATHER_FILE=USA_FL_Key.West_TMY2.epw
! WEATHER_FILE_KEY=USA_FL_KEY_WEST
! WEBINTERFACEVERSION=5.0
! WIDTH_1=20.00
! ZONE_LAYOUT=1
! ZONE_TERMINAL_FAN_STATIC_PRESSURE_INPUT=SmartDefault
!
! End WebInterface Parameters
! Number of Zones: 15
Version,6.0;

!-   ===========  ALL OBJECTS IN CLASS: SIMULATIONCONTROL ===========


SimulationControl,
    Yes,                     !- Do Zone Sizing Calculation
    Yes,                     !- Do System Sizing Calculation
    Yes,                     !- Do Plant Sizing Calculation
    Yes,                     !- Run Simulation for Sizing Periods
    Yes;                     !- Run Simulation for Weather File Run Periods


!-   ===========  ALL OBJECTS IN CLASS: BUILDING ===========

Building,
    VAV_w_rht,               !- Name
    0.0000,                  !- North Axis {deg}
    City,                    !- Terrain
    0.0400,                  !- Loads Convergence Tolerance Value
    0.2000,                  !- Temperature Convergence Tolerance Value {deltaC}
    FullInteriorAndExterior, !- Solar Distribution
    25;                      !- Maximum Number of Warmup Days


!-   ===========  ALL OBJECTS IN CLASS: SHADOWCALCULATION ===========

ShadowCalculation,
    30,                      !- Calculation Frequency
    15000;                   !- Maximum Figures in Shadow Overlap Calculations


!-   ===========  ALL OBJECTS IN CLASS: SURFACECONVECTIONALGORITHM:INSIDE ===========

SurfaceConvectionAlgorithm:Inside,TARP;

!-   ===========  ALL OBJECTS IN CLASS: SURFACECONVECTIONALGORITHM:OUTSIDE ===========

SurfaceConvectionAlgorithm:Outside,DOE-2;

!-   ===========  ALL OBJECTS IN CLASS: HEATBALANCEALGORITHM ===========

HeatBalanceAlgorithm,ConductionTransferFunction,200.0000;

!-   ===========  ALL OBJECTS IN CLASS: ZONEAIRHEATBALANCEALGORITHM ===========

ZoneAirHeatBalanceAlgorithm,AnalyticalSolution;

!-   ===========  ALL OBJECTS IN CLASS: TIMESTEP ===========

Timestep,4;

!-   ===========  ALL OBJECTS IN CLASS: CONVERGENCELIMITS ===========


ConvergenceLimits,
    5,                       !- Minimum System Timestep {minutes}
    20;                      !- Maximum HVAC Iterations


!-   ===========  ALL OBJECTS IN CLASS: SITE:LOCATION ===========

Site:Location,
    New Delhi_Delhi_IND Design_Conditions,  !- Name
    28.58,                   !- Latitude {deg}
    77.2,                    !- Longitude {deg}
    5.5,                     !- Time Zone {hr}
    216.00;                  !- Elevation {m}


!-   ===========  ALL OBJECTS IN CLASS: SIZINGPERIOD:DESIGNDAY ===========

SizingPeriod:DesignDay,
    New Delhi Ann Htg 99.6% Condns DB,  !- Name
    6.3,                     !- Maximum Dry-Bulb Temperature {C}
    0.0,                     !- Daily Temperature Range {deltaC}
    6.3,                     !- Humidity Indicating Conditions at Maximum Dry-Bulb
    98757.,                  !- Barometric Pressure {Pa}
    0.5,                     !- Wind Speed {m/s}
    270,                     !- Wind Direction {deg}
    0.00,                    !- Sky Clearness
    0,                       !- Rain Indicator
    0,                       !- Snow Indicator
    21,                      !- Day of Month
    1,                       !- Month
    WinterDesignDay,         !- Day Type
    0,                       !- Daylight Saving Time Indicator
    WetBulb;                 !- Humidity Indicating Type

SizingPeriod:DesignDay,
    New Delhi Ann Clg .4% Condns DB=>MWB,  !- Name
    42,                      !- Maximum Dry-Bulb Temperature {C}
    9.7,                     !- Daily Temperature Range {deltaC}
    22.2,                    !- Humidity Indicating Conditions at Maximum Dry-Bulb
    98757.,                  !- Barometric Pressure {Pa}
    3.2,                     !- Wind Speed {m/s}
    320,                     !- Wind Direction {deg}
    1.00,                    !- Sky Clearness
    0,                       !- Rain Indicator
    0,                       !- Snow Indicator
    21,                      !- Day of Month
    6,                       !- Month
    SummerDesignDay,         !- Day Type
    0,                       !- Daylight Saving Time Indicator
    WetBulb;                 !- Humidity Indicating Type


!-   ===========  ALL OBJECTS IN CLASS: RUNPERIOD ===========

RunPeriod,
    ,                        !- Name
    6,                       !- Begin Month
    1,                       !- Begin Day of Month
    7,                       !- End Month
    1,                       !- End Day of Month
    Monday,                  !- Day of Week for Start Day
    No,                      !- Use Weather File Holidays and Special Days
    No,                      !- Use Weather File Daylight Saving Period
    No,                      !- Apply Weekend Holiday Rule
    Yes,                     !- Use Weather File Rain Indicators
    Yes,                     !- Use Weather File Snow Indicators
    1.0000;                  !- Number of Times Runperiod to be Repeated


!-   ===========  ALL OBJECTS IN CLASS: RUNPERIODCONTROL:SPECIALDAYS ===========

! US National Holidays
RunPeriodControl:SpecialDays,
    New Years Day,           !- Name
    January 1,               !- Start Date
    1,                       !- Duration {days}
    Holiday;                 !- Special Day Type

RunPeriodControl:SpecialDays,
    Veterans Day,            !- Name
    November 11,             !- Start Date
    1,                       !- Duration {days}
    Holiday;                 !- Special Day Type

RunPeriodControl:SpecialDays,
    Christmas,               !- Name
    December 25,             !- Start Date
    1,                       !- Duration {days}
    Holiday;                 !- Special Day Type

RunPeriodControl:SpecialDays,
    Independence Day,        !- Name
    July 4,                  !- Start Date
    1,                       !- Duration {days}
    Holiday;                 !- Special Day Type

RunPeriodControl:SpecialDays,
    MLK Day,                 !- Name
    3rd Monday in January,   !- Start Date
    1,                       !- Duration {days}
    Holiday;                 !- Special Day Type

RunPeriodControl:SpecialDays,
    Presidents Day,          !- Name
    3rd Monday in February,  !- Start Date
    1,                       !- Duration {days}
    Holiday;                 !- Special Day Type

RunPeriodControl:SpecialDays,
    Memorial Day,            !- Name
    Last Monday in May,      !- Start Date
    1,                       !- Duration {days}
    Holiday;                 !- Special Day Type

RunPeriodControl:SpecialDays,
    Labor Day,               !- Name
    1st Monday in September, !- Start Date
    1,                       !- Duration {days}
    Holiday;                 !- Special Day Type

RunPeriodControl:SpecialDays,
    Columbus Day,            !- Name
    2nd Monday in October,   !- Start Date
    1,                       !- Duration {days}
    Holiday;                 !- Special Day Type

RunPeriodControl:SpecialDays,
    Thanksgiving,            !- Name
    4th Thursday in November,!- Start Date
    1,                       !- Duration {days}
    Holiday;                 !- Special Day Type


!-   ===========  ALL OBJECTS IN CLASS: RUNPERIODCONTROL:DAYLIGHTSAVINGTIME ===========

! Daylight Saving Period in US
RunPeriodControl:DaylightSavingTime,
    2nd Sunday in March,     !- Start Date
    1st Sunday in November;  !- End Date


!-   ===========  ALL OBJECTS IN CLASS: SITE:GROUNDTEMPERATURE:BUILDINGSURFACE ===========

Site:GroundTemperature:BuildingSurface,23.067,22.890,23.120,23.184,23.193,23.215,23.234,23.214,23.239,23.241,23.244,22.977;

!-   ===========  ALL OBJECTS IN CLASS: SITE:WATERMAINSTEMPERATURE ===========


!
!
!
! Site:GroundTemperature:BuildingSurface,23.067,22.890,23.120,23.184,23.193,23.215,23.234,23.214,23.239,23.241,23.244,22.977;
Site:WaterMainsTemperature,
    CORRELATION,             !- Calculation Method
    ,                        !- Temperature Schedule Name
    25.35,                   !- Annual Average Outdoor Air Temperature {C}
    9.10;                    !- Maximum Difference In Monthly Average Outdoor Air Temperatures {deltaC}


!-   ===========  ALL OBJECTS IN CLASS: SCHEDULETYPELIMITS ===========

!***** Schedule Set *****
ScheduleTypeLimits,
    Any Number;              !- Name

ScheduleTypeLimits,
    Fraction,                !- Name
    0.0,                     !- Lower Limit Value
    1.0,                     !- Upper Limit Value
    CONTINUOUS;              !- Numeric Type

ScheduleTypeLimits,
    Temperature,             !- Name
    -60,                     !- Lower Limit Value
    200,                     !- Upper Limit Value
    CONTINUOUS;              !- Numeric Type

ScheduleTypeLimits,
    On/Off,                  !- Name
    0,                       !- Lower Limit Value
    1,                       !- Upper Limit Value
    DISCRETE;                !- Numeric Type

ScheduleTypeLimits,
    Control Type,            !- Name
    0,                       !- Lower Limit Value
    4,                       !- Upper Limit Value
    DISCRETE;                !- Numeric Type

ScheduleTypeLimits,
    Humidity,                !- Name
    10,                      !- Lower Limit Value
    90,                      !- Upper Limit Value
    CONTINUOUS;              !- Numeric Type

ScheduleTypeLimits,
    Number;                  !- Name

!
! -------------------------------------------------------------
! New objects created from ExpandObjects
! -------------------------------------------------------------
!
ScheduleTypeLimits,
    HVACTemplate Any Number; !- Name


!-   ===========  ALL OBJECTS IN CLASS: SCHEDULE:COMPACT ===========

! Schedule Elevator
Schedule:Compact,
    BLDG_ELEVATORS,          !- Name
    Fraction,                !- Schedule Type Limits Name
    Through: 12/31,          !- Field 1
    For: Weekdays SummerDesignDay,  !- Field 2
    Until: 07:00, 0.0,       !- Field 4
    Until: 08:00, 0.35,      !- Field 6
    Until: 09:00, 0.69,      !- Field 8
    Until: 10:00, 0.43,      !- Field 10
    Until: 11:00, 0.37,      !- Field 12
    Until: 12:00, 0.43,      !- Field 14
    Until: 13:00, 0.58,      !- Field 16
    Until: 14:00, 0.48,      !- Field 18
    Until: 15:00, 0.37,      !- Field 20
    Until: 16:00, 0.37,      !- Field 22
    Until: 17:00, 0.46,      !- Field 24
    Until: 18:00, 0.62,      !- Field 26
    Until: 19:00, 0.12,      !- Field 28
    Until: 20:00, 0.04,      !- Field 30
    Until: 21:00, 0.04,      !- Field 32
    Until: 24:00, 0.00,      !- Field 34
    For: Saturday WinterDesignDay,  !- Field 35
    Until: 07:00, 0.0,       !- Field 37
    Until: 08:00, 0.16,      !- Field 39
    Until: 09:00, 0.14,      !- Field 41
    Until: 10:00, 0.21,      !- Field 43
    Until: 11:00, 0.18,      !- Field 45
    Until: 12:00, 0.25,      !- Field 47
    Until: 13:00, 0.21,      !- Field 49
    Until: 14:00, 0.13,      !- Field 51
    Until: 15:00, 0.08,      !- Field 53
    Until: 16:00, 0.04,      !- Field 55
    Until: 17:00, 0.05,      !- Field 57
    Until: 18:00, 0.06,      !- Field 59
    Until: 24:00, 0.00,      !- Field 61
    For: Sunday Holidays AllOtherDays,  !- Field 62
    Until: 24:00, 0.0;       !- Field 64

Schedule:Compact,
    INFIL_SCH,               !- Name
    Fraction,                !- Schedule Type Limits Name
    Through: 12/31,          !- Field 1
    For: Weekdays SummerDesignDay,  !- Field 2
    Until: 06:00, 1.0,       !- Field 4
    Until: 22:00, 0.0,       !- Field 6
    Until: 24:00, 1.0,       !- Field 8
    For: Saturday WinterDesignDay,  !- Field 9
    Until: 06:00, 1.0,       !- Field 11
    Until: 18:00, 0.0,       !- Field 13
    Until: 24:00, 1.0,       !- Field 15
    For: Sunday Holidays AllOtherDays,  !- Field 16
    Until: 24:00, 1.0;       !- Field 18

Schedule:Compact,
    INFIL_HALF_ON_SCH,       !- Name
    Fraction,                !- Schedule Type Limits Name
    Through: 12/31,          !- Field 1
    For: Weekdays SummerDesignDay,  !- Field 2
    Until: 06:00, 1.0,       !- Field 4
    Until: 22:00, 0.5,       !- Field 6
    Until: 24:00, 1.0,       !- Field 8
    For: Saturday WinterDesignDay,  !- Field 9
    Until: 06:00, 1.0,       !- Field 11
    Until: 18:00, 0.5,       !- Field 13
    Until: 24:00, 1.0,       !- Field 15
    For: Sunday Holidays AllOtherDays,  !- Field 16
    Until: 24:00, 1.0;       !- Field 18

Schedule:Compact,
    INFIL_QUARTER_ON_SCH,    !- Name
    Fraction,                !- Schedule Type Limits Name
    Through: 12/31,          !- Field 1
    For: Weekdays SummerDesignDay,  !- Field 2
    Until: 06:00, 1.0,       !- Field 4
    Until: 22:00, 0.25,      !- Field 6
    Until: 24:00, 1.0,       !- Field 8
    For: Saturday WinterDesignDay,  !- Field 9
    Until: 06:00, 1.0,       !- Field 11
    Until: 18:00, 0.25,      !- Field 13
    Until: 24:00, 1.0,       !- Field 15
    For: Sunday Holidays AllOtherDays,  !- Field 16
    Until: 24:00, 1.0;       !- Field 18

! Schedule Office Service Water Heating, ASHRAE 90.1-1989, Section 13
Schedule:Compact,
    BLDG_SWH_SCH,            !- Name
    Fraction,                !- Schedule Type Limits Name
    Through: 12/31,          !- Field 1
    For: Weekdays SummerDesignDay,  !- Field 2
    Until: 05:00, 0.05,      !- Field 4
    Until: 06:00, 0.08,      !- Field 6
    Until: 07:00, 0.07,      !- Field 8
    Until: 08:00, 0.19,      !- Field 10
    Until: 09:00, 0.35,      !- Field 12
    Until: 10:00, 0.38,      !- Field 14
    Until: 11:00, 0.39,      !- Field 16
    Until: 12:00, 0.47,      !- Field 18
    Until: 13:00, 0.57,      !- Field 20
    Until: 14:00, 0.54,      !- Field 22
    Until: 15:00, 0.34,      !- Field 24
    Until: 16:00, 0.33,      !- Field 26
    Until: 17:00, 0.44,      !- Field 28
    Until: 18:00, 0.26,      !- Field 30
    Until: 19:00, 0.21,      !- Field 32
    Until: 20:00, 0.15,      !- Field 34
    Until: 21:00, 0.17,      !- Field 36
    Until: 22:00, 0.08,      !- Field 38
    Until: 24:00, 0.05,      !- Field 40
    For: Saturday WinterDesignDay,  !- Field 41
    Until: 05:00, 0.05,      !- Field 43
    Until: 06:00, 0.08,      !- Field 45
    Until: 07:00, 0.07,      !- Field 47
    Until: 08:00, 0.11,      !- Field 49
    Until: 09:00, 0.15,      !- Field 51
    Until: 10:00, 0.21,      !- Field 53
    Until: 11:00, 0.19,      !- Field 55
    Until: 12:00, 0.23,      !- Field 57
    Until: 13:00, 0.20,      !- Field 59
    Until: 14:00, 0.19,      !- Field 61
    Until: 15:00, 0.15,      !- Field 63
    Until: 16:00, 0.13,      !- Field 65
    Until: 17:00, 0.14,      !- Field 67
    Until: 21:00, 0.07,      !- Field 69
    Until: 22:00, 0.09,      !- Field 71
    Until: 24:00, 0.05,      !- Field 73
    For: Sunday Holidays AllOtherDays,  !- Field 74
    Until: 05:00, 0.04,      !- Field 76
    Until: 06:00, 0.07,      !- Field 78
    Until: 11:00, 0.04,      !- Field 80
    Until: 13:00, 0.06,      !- Field 82
    Until: 14:00, 0.09,      !- Field 84
    Until: 15:00, 0.06,      !- Field 86
    Until: 21:00, 0.04,      !- Field 88
    Until: 22:00, 0.07,      !- Field 90
    Until: 24:00, 0.04;      !- Field 92

Schedule:Compact,
    Hours_of_operation,      !- Name
    On/Off,                  !- Schedule Type Limits Name
    Through: 12/31,          !- Field 1
    For: Weekdays SummerDesignDay,  !- Field 2
    Until: 06:00, 0.0,       !- Field 4
    Until: 22:00, 1.0,       !- Field 6
    Until: 24:00, 0.0,       !- Field 8
    For: Saturday WinterDesignDay,  !- Field 9
    Until: 06:00, 0.0,       !- Field 11
    Until: 18:00, 1.0,       !- Field 13
    Until: 24:00, 0.0,       !- Field 15
    For: Sunday Holidays AllOtherDays,  !- Field 16
    Until: 24:00, 0.0;       !- Field 18

Schedule:Compact,
    ALWAYS_ON,               !- Name
    Fraction,                !- Schedule Type Limits Name
    Through: 12/31,          !- Field 1
    For: AllDays,            !- Field 2
    Until: 24:00, 1.0;       !- Field 4

Schedule:Compact,
    ALWAYS_OFF,              !- Name
    Fraction,                !- Schedule Type Limits Name
    Through: 12/31,          !- Field 1
    For: AllDays,            !- Field 2
    Until: 24:00, 0.0;       !- Field 4

! Schedule Office HVAC Systems, ASHRAE 90.1-1989, Section 13
!  Equivalent Full-Load Hours: Weekdays 16, Saturday 12, Sunday/Holidays 0
Schedule:Compact,
    HVACOperationSchd,       !- Name
    On/Off,                  !- Schedule Type Limits Name
    Through: 12/31,          !- Field 1
    For: Weekdays SummerDesignDay,  !- Field 2
    Until: 06:00, 0.0,       !- Field 4
    Until: 22:00, 1.0,       !- Field 6
    Until: 24:00, 0.0,       !- Field 8
    For: Saturday WinterDesignDay,  !- Field 9
    Until: 06:00, 0.0,       !- Field 11
    Until: 18:00, 1.0,       !- Field 13
    Until: 24:00, 0.0,       !- Field 15
    For: Sunday Holidays AllOtherDays,  !- Field 16
    Until: 24:00, 0.0;       !- Field 18

Schedule:Compact,
    PlantOnSched,            !- Name
    On/Off,                  !- Schedule Type Limits Name
    Through: 12/31,          !- Field 1
    For: AllDays,            !- Field 2
    Until: 24:00, 1.0;       !- Field 4

Schedule:Compact,
    FAN_SCH,                 !- Name
    Fraction,                !- Schedule Type Limits Name
    Through: 12/31,          !- Field 1
    For: AllDays,            !- Field 2
    Until: 24:00, 1.0;       !- Field 4

Schedule:Compact,
    ReheatCoilAvailSched,    !- Name
    Fraction,                !- Schedule Type Limits Name
    Through: 12/31,          !- Field 1
    For: AllDays,            !- Field 2
    Until: 24:00, 1.0;       !- Field 4

Schedule:Compact,
    CoolingCoilAvailSched,   !- Name
    Fraction,                !- Schedule Type Limits Name
    Through: 12/31,          !- Field 1
    For: AllDays,            !- Field 2
    Until: 24:00, 1.0;       !- Field 4

Schedule:Compact,
    Humidity Setpoint Schedule,  !- Name
    Humidity,                !- Schedule Type Limits Name
    Through: 12/31,          !- Field 1
    For: Weekdays SummerDesignDay,  !- Field 2
    Until: 24:00, 50,        !- Field 4
    For: Saturday WinterDesignDay,  !- Field 5
    Until: 24:00, 50,        !- Field 7
    For: Sunday Holidays AllOtherDays,  !- Field 8
    Until: 24:00, 50;        !- Field 10

Schedule:Compact,
    MinRelHumSetSch,         !- Name
    Humidity,                !- Schedule Type Limits Name
    Through: 12/31,          !- Field 1
    For: AllDays,            !- Field 2
    Until: 24:00, 30;        !- Field 4

Schedule:Compact,
    MaxRelHumSetSch,         !- Name
    Humidity,                !- Schedule Type Limits Name
    Through: 12/31,          !- Field 1
    For: AllDays,            !- Field 2
    Until: 24:00, 60;        !- Field 4

Schedule:Compact,
    MinOA_MotorizedDamper_Sched,  !- Name
    Fraction,                !- Schedule Type Limits Name
    Through: 12/31,          !- Field 1
    For: Weekdays SummerDesignDay,  !- Field 2
    Until: 07:00, 0.0,       !- Field 4
    Until: 22:00, 1.0,       !- Field 6
    Until: 24:00, 0.0,       !- Field 8
    For: Saturday WinterDesignDay,  !- Field 9
    Until: 07:00, 0.0,       !- Field 11
    Until: 18:00, 1.0,       !- Field 13
    Until: 24:00, 0.0,       !- Field 15
    For: Sunday Holidays AllOtherDays,  !- Field 16
    Until: 24:00, 0.0;       !- Field 18

Schedule:Compact,
    MinOA_Sched,             !- Name
    Fraction,                !- Schedule Type Limits Name
    Through: 12/31,          !- Field 1
    For: AllDays,            !- Field 2
    Until: 24:00, 1.0;       !- Field 4

Schedule:Compact,
    Dual Zone Control Type Sched,  !- Name
    Control Type,            !- Schedule Type Limits Name
    Through: 12/31,          !- Field 1
    For: AllDays,            !- Field 2
    Until: 24:00, 4;         !- Field 4

Schedule:Compact,
    Seasonal-Reset-Supply-Air-Temp-Sch,  !- Name
    Temperature,             !- Schedule Type Limits Name
    Through: 3/31,           !- Field 1
    For: AllDays,            !- Field 2
    Until: 24:00, 22,        !- Field 4
    Through: 9/30,           !- Field 5
    For: AllDays,            !- Field 6
    Until: 24:00, 18,        !- Field 8
    Through: 12/31,          !- Field 9
    For: AllDays,            !- Field 10
    Until: 24:00, 22;        !- Field 12

Schedule:Compact,
    CW-Loop-Temp-Schedule,   !- Name
    Temperature,             !- Schedule Type Limits Name
    Through: 12/31,          !- Field 1
    For: AllDays,            !- Field 2
    Until: 24:00, 6.7;       !- Field 4

Schedule:Compact,
    HW-Loop-Temp-Schedule,   !- Name
    Temperature,             !- Schedule Type Limits Name
    Through: 12/31,          !- Field 1
    For: AllDays,            !- Field 2
    Until: 24:00, 60.;       !- Field 4

Schedule:Compact,
    Heating-Supply-Air-Temp-Sch,  !- Name
    Temperature,             !- Schedule Type Limits Name
    Through: 12/31,          !- Field 1
    For: AllDays,            !- Field 2
    Until: 24:00, 16.0;      !- Field 4

Schedule:Compact,
    ACTIVITY_SCH,            !- Name
    Any Number,              !- Schedule Type Limits Name
    Through: 12/31,          !- Field 1
    For: AllDays,            !- Field 2
    Until: 24:00, 120.;      !- Field 4

Schedule:Compact,
    WORK_EFF_SCH,            !- Name
    Fraction,                !- Schedule Type Limits Name
    Through: 12/31,          !- Field 1
    For: AllDays,            !- Field 2
    Until: 24:00, 0.0;       !- Field 4

Schedule:Compact,
    AIR_VELO_SCH,            !- Name
    Any Number,              !- Schedule Type Limits Name
    Through: 12/31,          !- Field 1
    For: AllDays,            !- Field 2
    Until: 24:00, 0.2;       !- Field 4

Schedule:Compact,
    CLOTHING_SCH,            !- Name
    Any Number,              !- Schedule Type Limits Name
    Through: 04/30,          !- Field 1
    For: AllDays,            !- Field 2
    Until: 24:00, 1.0,       !- Field 4
    Through: 09/30,          !- Field 5
    For: AllDays,            !- Field 6
    Until: 24:00, 0.5,       !- Field 8
    Through: 12/31,          !- Field 9
    For: AllDays,            !- Field 10
    Until: 24:00, 1.0;       !- Field 12

Schedule:Compact,
    SHADING_SCH,             !- Name
    Any Number,              !- Schedule Type Limits Name
    Through: 12/31,          !- Field 1
    For: AllDays,            !- Field 2
    Until: 24:00, 0.0;       !- Field 4

Schedule:Compact,
    BLDG_LIGHT_SCH,          !- Name
    Fraction,                !- Schedule Type Limits Name
    Through: 12/31,          !- Field 1
    For: Weekdays,           !- Field 2
    Until: 05:00, 0.05,      !- Field 4
    Until: 07:00, .715,      !- Field 6
    Until: 09:00, .87,       !- Field 8
    Until: 18:00, 0.9,       !- Field 10
    Until: 19:00, .8984,     !- Field 12
    Until: 20:00, .8838,     !- Field 14
    Until: 22:00, .7425,     !- Field 16
    Until: 23:00, .4074,     !- Field 18
    Until: 24:00, .23,       !- Field 20
    For: SummerDesignDay,    !- Field 21
    Until: 24:00, 1.0,       !- Field 23
    For: Saturday,           !- Field 24
    Until: 06:00, 0.05,      !- Field 26
    Until: 08:00, .05,       !- Field 28
    Until: 12:00, .05,       !- Field 30
    Until: 17:00, .05,       !- Field 32
    Until: 24:00, 0.05,      !- Field 34
    For: WinterDesignDay,    !- Field 35
    Until: 24:00, 0.0,       !- Field 37
    For: Sunday Holidays AllOtherDays,  !- Field 38
    Until: 24:00, 0.05;      !- Field 40

Schedule:Compact,
    BLDG_EQUIP_SCH,          !- Name
    Fraction,                !- Schedule Type Limits Name
    Through: 12/31,          !- Field 1
    For: Weekdays,           !- Field 2
    Until: 06:00, .1248,     !- Field 4
    Until: 12:00, 0.90,      !- Field 6
    Until: 13:00, 0.80,      !- Field 8
    Until: 21:00, 0.90,      !- Field 10
    Until: 23:00, .7,        !- Field 12
    Until: 24:00, .2,        !- Field 14
    For: SummerDesignDay,    !- Field 15
    Until: 24:00, 1.0,       !- Field 17
    For: Saturday,           !- Field 18