
Version,                  
    8.0;                      !- Version Identifier

SimulationControl,        
    Yes,                      !- Do Zone Sizing Calculation
    Yes,                      !- Do System Sizing Calculation
    Yes,                      !- Do Plant Sizing Calculation
    Yes,                      !- Run Simulation for Sizing Periods
    YES;                      !- Run Simulation for Weather File Run Periods

Building,                 
    Primary School,           !- Name
    0.0,                      !- North Axis
    City,                     !- Terrain
    0.04,                     !- Loads Convergence Tolerance Value
    0.2,                      !- Temperature Convergence Tolerance Value
    FullInteriorAndExterior,    !- Solar Distribution
    25,                       !- Maximum Number of Warmup Days
    6;                        !- Minimum Number of Warmup Days

ShadowCalculation,        
    AverageOverDaysInFrequency,    !- Calculation Method
    30,                       !- Calculation Frequency
    15000;                    !- Maximum Figures in Shadow Overlap Calculations

SurfaceConvectionAlgorithm:Inside,
    TARP;                     !- Algorithm

SurfaceConvectionAlgorithm:Outside,
    TARP;                     !- Algorithm

HeatBalanceAlgorithm,     
    ConductionTransferFunction,    !- Algorithm
    200.0;                    !- Surface Temperature Upper Limit

Timestep,                 
    6;                        !- Number of Timesteps per Hour

ConvergenceLimits,        
    1,                        !- Minimum System Timestep
    20;                       !- Maximum HVAC Iterations

Site:Location,            
    Salem Mcnary Field_OR_USA Design_Conditions,    !- Name
    44.9,                     !- Latitude
    -123.0,                   !- Longitude
    -8.0,                     !- Time Zone
    60.0;                     !- Elevation

SizingPeriod:DesignDay,   
    Salem Mcnary Field Ann Htg 99.6% Condns DB,    !- Name
    12,                       !- Month
    21,                       !- Day of Month
    WinterDesignDay,          !- Day Type
    -5.6,                     !- Maximum DryBulb Temperature
    0.0,                      !- Daily DryBulb Temperature Range
    DefaultMultipliers,       !- DryBulb Temperature Range Modifier Type
    ,                         !- DryBulb Temperature Range Modifier Day Schedule Name
    Wetbulb,                  !- Humidity Condition Type
    -5.6,                     !- Wetbulb or DewPoint at Maximum DryBulb
    ,                         !- Humidity Condition Day Schedule Name
    ,                         !- Humidity Ratio at Maximum DryBulb
    ,                         !- Enthalpy at Maximum DryBulb
    ,                         !- Daily WetBulb Temperature Range
    100606.0,                 !- Barometric Pressure
    2.1,                      !- Wind Speed
    0.0,                      !- Wind Direction
    No,                       !- Rain Indicator
    No,                       !- Snow Indicator
    No,                       !- Daylight Saving Time Indicator
    ASHRAEClearSky,           !- Solar Model Indicator
    ,                         !- Beam Solar Day Schedule Name
    ,                         !- Diffuse Solar Day Schedule Name
    ,                         !- ASHRAE Clear Sky Optical Depth for Beam Irradiance taub
    ,                         !- ASHRAE Clear Sky Optical Depth for Diffuse Irradiance taud
    0.0;                      !- Sky Clearness

SizingPeriod:DesignDay,   
    Salem Mcnary Field Ann Clg .4% Condns DB=>MWB,    !- Name
    8,                        !- Month
    21,                       !- Day of Month
    SummerDesignDay,          !- Day Type
    33.3,                     !- Maximum DryBulb Temperature
    15.4,                     !- Daily DryBulb Temperature Range
    DefaultMultipliers,       !- DryBulb Temperature Range Modifier Type
    ,                         !- DryBulb Temperature Range Modifier Day Schedule Name
    Wetbulb,                  !- Humidity Condition Type
    19.4,                     !- Wetbulb or DewPoint at Maximum DryBulb
    ,                         !- Humidity Condition Day Schedule Name
    ,                         !- Humidity Ratio at Maximum DryBulb
    ,                         !- Enthalpy at Maximum DryBulb
    ,                         !- Daily WetBulb Temperature Range
    100606.0,                 !- Barometric Pressure
    4.3,                      !- Wind Speed
    0.0,                      !- Wind Direction
    No,                       !- Rain Indicator
    No,                       !- Snow Indicator
    No,                       !- Daylight Saving Time Indicator
    ASHRAETau,                !- Solar Model Indicator
    ,                         !- Beam Solar Day Schedule Name
    ,                         !- Diffuse Solar Day Schedule Name
    0.355,                    !- ASHRAE Clear Sky Optical Depth for Beam Irradiance taub
    2.578;                    !- ASHRAE Clear Sky Optical Depth for Diffuse Irradiance taud

RunPeriod,                
    ,                         !- Name
    1,                        !- Begin Month
    1,                        !- Begin Day of Month
    12,                       !- End Month
    31,                       !- End Day of Month
    Sunday,                   !- Day of Week for Start Day
    No,                       !- Use Weather File Holidays and Special Days
    No,                       !- Use Weather File Daylight Saving Period
    No,                       !- Apply Weekend Holiday Rule
    Yes,                      !- Use Weather File Rain Indicators
    Yes,                      !- Use Weather File Snow Indicators
    1.0000;                   !- Number of Times Runperiod to be Repeated

RunPeriodControl:SpecialDays,
    New Years Day,            !- Name
    January 1,                !- Start Date
    1,                        !- Duration
    Holiday;                  !- Special Day Type

RunPeriodControl:SpecialDays,
    Veterans Day,             !- Name
    November 11,              !- Start Date
    1,                        !- Duration
    Holiday;                  !- Special Day Type

RunPeriodControl:SpecialDays,
    Christmas,                !- Name
    December 25,              !- Start Date
    1,                        !- Duration
    Holiday;                  !- Special Day Type

RunPeriodControl:SpecialDays,
    Independence Day,         !- Name
    July 4,                   !- Start Date
    1,                        !- Duration
    Holiday;                  !- Special Day Type

RunPeriodControl:SpecialDays,
    MLK Day,                  !- Name
    3rd Monday in January,    !- Start Date
    1,                        !- Duration
    Holiday;                  !- Special Day Type

RunPeriodControl:SpecialDays,
    Presidents Day,           !- Name
    3rd Monday in February,    !- Start Date
    1,                        !- Duration
    Holiday;                  !- Special Day Type

RunPeriodControl:SpecialDays,
    Memorial Day,             !- Name
    Last Monday in May,       !- Start Date
    1,                        !- Duration
    Holiday;                  !- Special Day Type

RunPeriodControl:SpecialDays,
    Labor Day,                !- Name
    1st Monday in September,    !- Start Date
    1,                        !- Duration
    Holiday;                  !- Special Day Type

RunPeriodControl:SpecialDays,
    Columbus Day,             !- Name
    2nd Monday in October,    !- Start Date
    1,                        !- Duration
    Holiday;                  !- Special Day Type

RunPeriodControl:SpecialDays,
    Thanksgiving,             !- Name
    4th Thursday in November,    !- Start Date
    1,                        !- Duration
    Holiday;                  !- Special Day Type

RunPeriodControl:DaylightSavingTime,
    2nd Sunday in March,      !- Start Date
    1st Sunday in November;    !- End Date

Site:GroundTemperature:BuildingSurface,
    20.51,                    !- January Ground Temperature
    20.51,                    !- February Ground Temperature
    20.53,                    !- March Ground Temperature
    20.57,                    !- April Ground Temperature
    20.65,                    !- May Ground Temperature
    22.9,                     !- June Ground Temperature
    23.27,                    !- July Ground Temperature
    23.36,                    !- August Ground Temperature
    23.36,                    !- September Ground Temperature
    21.07,                    !- October Ground Temperature
    20.71,                    !- November Ground Temperature
    20.6;                     !- December Ground Temperature

Site:WaterMainsTemperature,
    CORRELATION,              !- Calculation Method
    ,                         !- Temperature Schedule Name
    10.88,                    !- Annual Average Outdoor Air Temperature
    13.46;                    !- Maximum Difference In Monthly Average Outdoor Air Temperatures

ScheduleTypeLimits,       
    Any Number;               !- Name

ScheduleTypeLimits,       
    Fraction,                 !- Name
    0.0,                      !- Lower Limit Value
    1.0,                      !- Upper Limit Value
    CONTINUOUS;               !- Numeric Type

ScheduleTypeLimits,       
    Temperature,              !- Name
    -60,                      !- Lower Limit Value
    200,                      !- Upper Limit Value
    CONTINUOUS;               !- Numeric Type

ScheduleTypeLimits,       
    On/Off,                   !- Name
    0,                        !- Lower Limit Value
    1,                        !- Upper Limit Value
    DISCRETE;                 !- Numeric Type

ScheduleTypeLimits,       
    Control Type,             !- Name
    0,                        !- Lower Limit Value
    4,                        !- Upper Limit Value
    DISCRETE;                 !- Numeric Type

ScheduleTypeLimits,       
    Humidity,                 !- Name
    10,                       !- Lower Limit Value
    90,                       !- Upper Limit Value
    CONTINUOUS;               !- Numeric Type

ScheduleTypeLimits,       
    Number;                   !- Name

Schedule:Compact,         
    BLDG_LIGHT_BATH_SCH,      !- Name
    Fraction,                 !- Schedule Type Limits Name
    Through: 6/30,            !- Field 1
    For: Weekdays,            !- Field 2
    Until: 7:00,              !- Field 3
    0.1773,                   !- Field 4
    Until: 21:00,             !- Field 5
    0.9,                      !- Field 6
    Until: 24:00,             !- Field 7
    0.1773,                   !- Field 8
    For: SummerDesignDay,     !- Field 9
    Until: 24:00,             !- Field 10
    1,                        !- Field 11
    For: WinterDesignDay,     !- Field 12
    Until: 24:00,             !- Field 13
    0,                        !- Field 14
    For: WeekEnds Holidays AllOtherDays,    !- Field 15
    Until: 24:00,             !- Field 16
    0.1773,                   !- Field 17
    Through: 9/1,             !- Field 18
    For: Weekdays,            !- Field 19
    Until: 8:00,              !- Field 20
    0.1773,                   !- Field 21
    Until: 20:00,             !- Field 22
    0.5,                      !- Field 23
    Until: 24:00,             !- Field 24
    0.1773,                   !- Field 25
    For: SummerDesignDay,     !- Field 26
    Until: 24:00,             !- Field 27
    1,                        !- Field 28
    For: WinterDesignDay,     !- Field 29
    Until: 24:00,             !- Field 30
    0,                        !- Field 31
    For: WeekEnds Holidays AllOtherDays,    !- Field 32
    Until: 24:00,             !- Field 33
    0.1773,                   !- Field 34
    Through: 12/31,           !- Field 35
    For: Weekdays,            !- Field 36
    Until: 7:00,              !- Field 37
    0.1773,                   !- Field 38
    Until: 21:00,             !- Field 39
    0.9,                      !- Field 40
    Until: 24:00,             !- Field 41
    0.1773,                   !- Field 42
    For: SummerDesignDay,     !- Field 43
    Until: 24:00,             !- Field 44
    1,                        !- Field 45
    For: WinterDesignDay,     !- Field 46
    Until: 24:00,             !- Field 47
    0,                        !- Field 48
    For: WeekEnds Holidays AllOtherDays,    !- Field 49
    Until: 24:00,             !- Field 50
    0.1773;                   !- Field 51

Schedule:Compact,         
    BLDG_LIGHT_CLASSROOM_SCH,    !- Name
    Fraction,                 !- Schedule Type Limits Name
    Through: 6/30,            !- Field 1
    For: Weekdays,            !- Field 2
    Until: 7:00,              !- Field 3
    0.1773,                   !- Field 4
    Until: 21:00,             !- Field 5
    0.9,                      !- Field 6
    Until: 24:00,             !- Field 7
    0.1773,                   !- Field 8
    For: SummerDesignDay,     !- Field 9
    Until: 24:00,             !- Field 10
    1,                        !- Field 11
    For: WinterDesignDay,     !- Field 12
    Until: 24:00,             !- Field 13
    0,                        !- Field 14
    For: WeekEnds Holidays AllOtherDays,    !- Field 15
    Until: 24:00,             !- Field 16
    0.1773,                   !- Field 17
    Through: 9/1,             !- Field 18
    For: Weekdays,            !- Field 19
    Until: 8:00,              !- Field 20
    0.1773,                   !- Field 21
    Until: 20:00,             !- Field 22
    0.5,                      !- Field 23
    Until: 24:00,             !- Field 24
    0.1773,                   !- Field 25
    For: SummerDesignDay,     !- Field 26
    Until: 24:00,             !- Field 27
    1,                        !- Field 28
    For: WinterDesignDay,     !- Field 29
    Until: 24:00,             !- Field 30
    0,                        !- Field 31
    For: WeekEnds Holidays AllOtherDays,    !- Field 32
    Until: 24:00,             !- Field 33
    0.1773,                   !- Field 34
    Through: 12/31,           !- Field 35
    For: Weekdays,            !- Field 36
    Until: 7:00,              !- Field 37
    0.1773,                   !- Field 38
    Until: 21:00,             !- Field 39
    0.9,                      !- Field 40
    Until: 24:00,             !- Field 41
    0.1773,                   !- Field 42
    For: SummerDesignDay,     !- Field 43
    Until: 24:00,             !- Field 44
    1,                        !- Field 45
    For: WinterDesignDay,     !- Field 46
    Until: 24:00,             !- Field 47
    0,                        !- Field 48
    For: WeekEnds Holidays AllOtherDays,    !- Field 49
    Until: 24:00,             !- Field 50
    0.1773;                   !- Field 51

Schedule:Compact,         
    BLDG_LIGHT_CORRIDOR_SCH,    !- Name
    Fraction,                 !- Schedule Type Limits Name
    Through: 6/30,            !- Field 1
    For: Weekdays,            !- Field 2
    Until: 7:00,              !- Field 3
    0.1773,                   !- Field 4
    Until: 21:00,             !- Field 5
    0.9,                      !- Field 6
    Until: 24:00,             !- Field 7
    0.1773,                   !- Field 8
    For: SummerDesignDay,     !- Field 9
    Until: 24:00,             !- Field 10
    1,                        !- Field 11
    For: WinterDesignDay,     !- Field 12
    Until: 24:00,             !- Field 13
    0,                        !- Field 14
    For: WeekEnds Holidays AllOtherDays,    !- Field 15
    Until: 24:00,             !- Field 16
    0.1773,                   !- Field 17
    Through: 9/1,             !- Field 18
    For: Weekdays,            !- Field 19
    Until: 8:00,              !- Field 20
    0.1773,                   !- Field 21
    Until: 20:00,             !- Field 22
    0.5,                      !- Field 23
    Until: 24:00,             !- Field 24
    0.1773,                   !- Field 25
    For: SummerDesignDay,     !- Field 26
    Until: 24:00,             !- Field 27
    1,                        !- Field 28
    For: WinterDesignDay,     !- Field 29
    Until: 24:00,             !- Field 30
    0,                        !- Field 31
    For: WeekEnds Holidays AllOtherDays,    !- Field 32
    Until: 24:00,             !- Field 33
    0.1773,                   !- Field 34
    Through: 12/31,           !- Field 35
    For: Weekdays,            !- Field 36
    Until: 7:00,              !- Field 37
    0.1773,                   !- Field 38
    Until: 21:00,             !- Field 39
    0.9,                      !- Field 40
    Until: 24:00,             !- Field 41
    0.1773,                   !- Field 42
    For: SummerDesignDay,     !- Field 43
    Until: 24:00,             !- Field 44
    1,                        !- Field 45
    For: WinterDesignDay,     !- Field 46
    Until: 24:00,             !- Field 47
    0,                        !- Field 48
    For: WeekEnds Holidays AllOtherDays,    !- Field 49
    Until: 24:00,             !- Field 50
    0.1773;                   !- Field 51

Schedule:Compact,         
    BLDG_LIGHT_GYM_SCH,       !- Name
    Fraction,                 !- Schedule Type Limits Name
    Through: 6/30,            !- Field 1
    For: Weekdays,            !- Field 2
    Until: 7:00,              !- Field 3
    0.1773,                   !- Field 4
    Until: 21:00,             !- Field 5
    0.9,                      !- Field 6
    Until: 24:00,             !- Field 7
    0.1773,                   !- Field 8
    For: SummerDesignDay,     !- Field 9
    Until: 24:00,             !- Field 10
    1,                        !- Field 11
    For: WinterDesignDay,     !- Field 12
    Until: 24:00,             !- Field 13
    0,                        !- Field 14
    For: WeekEnds Holidays AllOtherDays,    !- Field 15
    Until: 24:00,             !- Field 16
    0.1773,                   !- Field 17
    Through: 9/1,             !- Field 18
    For: Weekdays,            !- Field 19
    Until: 8:00,              !- Field 20
    0.1773,                   !- Field 21
    Until: 20:00,             !- Field 22
    0.5,                      !- Field 23
    Until: 24:00,             !- Field 24
    0.1773,                   !- Field 25
    For: SummerDesignDay,     !- Field 26
    Until: 24:00,             !- Field 27
    1,                        !- Field 28
    For: WinterDesignDay,     !- Field 29
    Until: 24:00,             !- Field 30
    0,                        !- Field 31
    For: WeekEnds Holidays AllOtherDays,    !- Field 32
    Until: 24:00,             !- Field 33
    0.1773,                   !- Field 34
    Through: 12/31,           !- Field 35
    For: Weekdays,            !- Field 36
    Until: 7:00,              !- Field 37
    0.1773,                   !- Field 38
    Until: 21:00,             !- Field 39
    0.9,                      !- Field 40
    Until: 24:00,             !- Field 41
    0.1773,                   !- Field 42
    For: SummerDesignDay,     !- Field 43
    Until: 24:00,             !- Field 44
    1,                        !- Field 45
    For: WinterDesignDay,     !- Field 46
    Until: 24:00,             !- Field 47
    0,                        !- Field 48
    For: WeekEnds Holidays AllOtherDays,    !- Field 49
    Until: 24:00,             !- Field 50
    0.1773;                   !- Field 51

Schedule:Compact,         
    BLDG_LIGHT_LIBRARY_SCH,    !- Name
    Fraction,                 !- Schedule Type Limits Name
    Through: 6/30,            !- Field 1
    For: Weekdays,            !- Field 2
    Until: 7:00,              !- Field 3
    0.1773,                   !- Field 4
    Until: 21:00,             !- Field 5
    0.9,                      !- Field 6
    Until: 24:00,             !- Field 7
    0.1773,                   !- Field 8
    For: SummerDesignDay,     !- Field 9
    Until: 24:00,             !- Field 10
    1,                        !- Field 11
    For: WinterDesignDay,     !- Field 12
    Until: 24:00,             !- Field 13
    0,                        !- Field 14
    For: WeekEnds Holidays AllOtherDays,    !- Field 15
    Until: 24:00,             !- Field 16
    0.1773,                   !- Field 17
    Through: 9/1,             !- Field 18
    For: Weekdays,            !- Field 19
    Until: 8:00,              !- Field 20
    0.1773,                   !- Field 21
    Until: 20:00,             !- Field 22
    0.5,                      !- Field 23
    Until: 24:00,             !- Field 24
    0.1773,                   !- Field 25
    For: SummerDesignDay,     !- Field 26
    Until: 24:00,             !- Field 27
    1,                        !- Field 28
    For: WinterDesignDay,     !- Field 29
    Until: 24:00,             !- Field 30
    0,                        !- Field 31
    For: WeekEnds Holidays AllOtherDays,    !- Field 32
    Until: 24:00,             !- Field 33
    0.1773,                   !- Field 34
    Through: 12/31,           !- Field 35
    For: Weekdays,            !- Field 36
    Until: 7:00,              !- Field 37
    0.1773,                   !- Field 38
    Until: 21:00,             !- Field 39
    0.9,                      !- Field 40
    Until: 24:00,             !- Field 41
    0.1773,                   !- Field 42
    For: SummerDesignDay,     !- Field 43
    Until: 24:00,             !- Field 44
    1,                        !- Field 45
    For: WinterDesignDay,     !- Field 46
    Until: 24:00,             !- Field 47
    0,                        !- Field 48
    For: WeekEnds Holidays AllOtherDays,    !- Field 49
    Until: 24:00,             !- Field 50
    0.1773;                   !- Field 51

Schedule:Compact,         
    BLDG_LIGHT_LOBBYFLR1_SCH,    !- Name
    Fraction,                 !- Schedule Type Limits Name
    Through: 6/30,            !- Field 1
    For: Weekdays,            !- Field 2
    Until: 7:00,              !- Field 3
    0.1773,                   !- Field 4
    Until: 21:00,             !- Field 5
    0.9,                      !- Field 6
    Until: 24:00,             !- Field 7
    0.1773,                   !- Field 8
    For: SummerDesignDay,     !- Field 9
    Until: 24:00,             !- Field 10
    1,                        !- Field 11
    For: WinterDesignDay,     !- Field 12
    Until: 24:00,             !- Field 13
    0,                        !- Field 14
    For: WeekEnds Holidays AllOtherDays,    !- Field 15
    Until: 24:00,             !- Field 16
    0.1773,                   !- Field 17
    Through: 9/1,             !- Field 18
    For: Weekdays,            !- Field 19
    Until: 8:00,              !- Field 20
    0.1773,                   !- Field 21
    Until: 20:00,             !- Field 22
    0.5,                      !- Field 23
    Until: 24:00,             !- Field 24
    0.1773,                   !- Field 25
    For: SummerDesignDay,     !- Field 26
    Until: 24:00,             !- Field 27
    1,                        !- Field 28
    For: WinterDesignDay,     !- Field 29
    Until: 24:00,             !- Field 30
    0,                        !- Field 31
    For: WeekEnds Holidays AllOtherDays,    !- Field 32
    Until: 24:00,             !- Field 33
    0.1773,                   !- Field 34
    Through: 12/31,           !- Field 35
    For: Weekdays,            !- Field 36
    Until: 7:00,              !- Field 37
    0.1773,                   !- Field 38
    Until: 21:00,             !- Field 39
    0.9,                      !- Field 40
    Until: 24:00,             !- Field 41
    0.1773,                   !- Field 42
    For: SummerDesignDay,     !- Field 43
    Until: 24:00,             !- Field 44
    1,                        !- Field 45
    For: WinterDesignDay,     !- Field 46
    Until: 24:00,             !- Field 47
    0,                        !- Field 48
    For: WeekEnds Holidays AllOtherDays,    !- Field 49
    Until: 24:00,             !- Field 50
    0.1773;                   !- Field 51

Schedule:Compact,         
    BLDG_LIGHT_OFFICE_SCH,    !- Name
    Fraction,                 !- Schedule Type Limits Name
    Through: 6/30,            !- Field 1
    For: Weekdays,            !- Field 2
    Until: 7:00,              !- Field 3
    0.1773,                   !- Field 4
    Until: 21:00,             !- Field 5
    0.9,                      !- Field 6
    Until: 24:00,             !- Field 7
    0.1773,                   !- Field 8
    For: SummerDesignDay,     !- Field 9
    Until: 24:00,             !- Field 10
    1,                        !- Field 11
    For: WinterDesignDay,     !- Field 12
    Until: 24:00,             !- Field 13
    0,                        !- Field 14
    For: WeekEnds Holidays AllOtherDays,    !- Field 15
    Until: 24:00,             !- Field 16
    0.1773,                   !- Field 17
    Through: 9/1,             !- Field 18
    For: Weekdays,            !- Field 19
    Until: 8:00,              !- Field 20
    0.1773,                   !- Field 21
    Until: 20:00,             !- Field 22
    0.5,                      !- Field 23
    Until: 24:00,             !- Field 24
    0.1773,                   !- Field 25
    For: SummerDesignDay,     !- Field 26
    Until: 24:00,             !- Field 27
    1,                        !- Field 28
    For: WinterDesignDay,     !- Field 29
    Until: 24:00,             !- Field 30
    0,                        !- Field 31
    For: WeekEnds Holidays AllOtherDays,    !- Field 32
    Until: 24:00,             !- Field 33
    0.1773,                   !- Field 34
    Through: 12/31,           !- Field 35
    For: Weekdays,            !- Field 36
    Until: 7:00,              !- Field 37
    0.1773,                   !- Field 38
    Until: 21:00,             !- Field 39
    0.9,                      !- Field 40
    Until: 24:00,             !- Field 41
    0.1773,                   !- Field 42
    For: SummerDesignDay,     !- Field 43
    Until: 24:00,             !- Field 44
    1,                        !- Field 45
    For: WinterDesignDay,     !- Field 46
    Until: 24:00,             !- Field 47
    0,                        !- Field 48
    For: WeekEnds Holidays AllOtherDays,    !- Field 49
    Until: 24:00,             !- Field 50
    0.1773;                   !- Field 51

Schedule:Compact,         
    BLDG_LIGHT_SCH,           !- Name
    Fraction,                 !- Schedule Type Limits Name
    Through: 6/30,            !- Field 1
    For: Weekdays,            !- Field 2
    Until: 7:00,              !- Field 3
    0.1773,                   !- Field 4
    Until: 21:00,             !- Field 5
    0.9,                      !- Field 6
    Until: 24:00,             !- Field 7
    0.1773,                   !- Field 8
    For: SummerDesignDay,     !- Field 9
    Until: 24:00,             !- Field 10
    1,                        !- Field 11
    For: WinterDesignDay,     !- Field 12
    Until: 24:00,             !- Field 13
    0,                        !- Field 14
    For: WeekEnds Holidays AllOtherDays,    !- Field 15
    Until: 24:00,             !- Field 16
    0.1773,                   !- Field 17
    Through: 9/1,             !- Field 18
    For: Weekdays,            !- Field 19
    Until: 8:00,              !- Field 20
    0.1773,                   !- Field 21
    Until: 20:00,             !- Field 22
    0.5,                      !- Field 23
    Until: 24:00,             !- Field 24
    0.1773,                   !- Field 25
    For: SummerDesignDay,     !- Field 26
    Until: 24:00,             !- Field 27
    1,                        !- Field 28
    For: WinterDesignDay,     !- Field 29
    Until: 24:00,             !- Field 30
    0,                        !- Field 31
    For: WeekEnds Holidays AllOtherDays,    !- Field 32
    Until: 24:00,             !- Field 33
    0.1773,                   !- Field 34
    Through: 12/31,           !- Field 35
    For: Weekdays,            !- Field 36
    Until: 7:00,              !- Field 37
    0.1773,                   !- Field 38
    Until: 21:00,             !- Field 39
    0.9,                      !- Field 40
    Until: 24:00,             !- Field 41
    0.1773,                   !- Field 42
    For: SummerDesignDay,     !- Field 43
    Until: 24:00,             !- Field 44
    1,                        !- Field 45
    For: WinterDesignDay,     !- Field 46
    Until: 24:00,             !- Field 47
    0,                        !- Field 48
    For: WeekEnds Holidays AllOtherDays,    !- Field 49
    Until: 24:00,             !- Field 50
    0.1773;                   !- Field 51

Schedule:Compact,         
    BLDG_EQUIP_SCH,           !- Name
    Fraction,                 !- Schedule Type Limits Name
    Through: 6/30,            !- Field 1
    For: SummerDesignDay,     !- Field 2
    Until: 08:00,             !- Field 3
    0.35,                     !- Field 4
    Until: 17:00,             !- Field 5
    0.95,                     !- Field 6
    Until: 24:00,             !- Field 7
    0.35,                     !- Field 8
    For: WinterDesignDay,     !- Field 9
    Until: 24:00,             !- Field 10
    0.35,                     !- Field 11
    For: Weekdays,            !- Field 12
    Until: 08:00,             !- Field 13
    0.35,                     !- Field 14
    Until: 17:00,             !- Field 15
    0.95,                     !- Field 16
    Until: 21:00,             !- Field 17
    0.35,                     !- Field 18
    Until: 24:00,             !- Field 19
    0.35,                     !- Field 20
    For: WeekEnds Holidays AllOtherDays,    !- Field 21
    Until: 24:00,             !- Field 22
    0.35,                     !- Field 23
    Through: 9/1,             !- Field 24
    For: SummerDesignDay,     !- Field 25
    Until: 08:00,             !- Field 26
    0.25,                     !- Field 27
    Until: 17:00,             !- Field 28