!-Generator IDFEditor 1.38a
!-Option SortedOrder

!-NOTE: All comments with '!-' are ignored by the IDFEditor and are generated automatically.
!-      Use '!' comments if they need to be retained when using the IDFEditor.


!-   ===========  ALL OBJECTS IN CLASS: VERSION ===========

Version,
    6.0;                     !- Version Identifier


!-   ===========  ALL OBJECTS IN CLASS: SIMULATIONCONTROL ===========

SimulationControl,
    Yes,                     !- Do Zone Sizing Calculation
    Yes,                     !- Do System Sizing Calculation
    No,                      !- Do Plant Sizing Calculation
    No,                      !- Run Simulation for Sizing Periods
    Yes;                     !- Run Simulation for Weather File Run Periods


!-   ===========  ALL OBJECTS IN CLASS: BUILDING ===========

Building,
    Untitled,                !- Name
    -35,                     !- North Axis {deg}
    City,                    !- Terrain
    0.04,                    !- Loads Convergence Tolerance Value
    0.4,                     !- Temperature Convergence Tolerance Value {deltaC}
    FullExterior,            !- Solar Distribution
    25;                      !- Maximum Number of Warmup Days


!-   ===========  ALL OBJECTS IN CLASS: SHADOWCALCULATION ===========

ShadowCalculation,
    14;                      !- Calculation Frequency


!-   ===========  ALL OBJECTS IN CLASS: SURFACECONVECTIONALGORITHM:INSIDE ===========

SurfaceConvectionAlgorithm:Inside,
    TARP;                    !- Algorithm


!-   ===========  ALL OBJECTS IN CLASS: SURFACECONVECTIONALGORITHM:OUTSIDE ===========

SurfaceConvectionAlgorithm:Outside,
    TARP;                    !- Algorithm


!-   ===========  ALL OBJECTS IN CLASS: HEATBALANCEALGORITHM ===========

HeatBalanceAlgorithm,
    ConductionTransferFunction;  !- Algorithm


!-   ===========  ALL OBJECTS IN CLASS: TIMESTEP ===========

Timestep,
    6;                       !- Number of Timesteps per Hour


!-   ===========  ALL OBJECTS IN CLASS: CONVERGENCELIMITS ===========

ConvergenceLimits,
    60,                      !- Minimum System Timestep {minutes}
    1000;                    !- Maximum HVAC Iterations


!-   ===========  ALL OBJECTS IN CLASS: SITE:LOCATION ===========

Site:Location,
    Santa Monica Muni_CA_USA Design_Conditions,  !- Name
    34.02,                   !- Latitude {deg}
    -118.45,                 !- Longitude {deg}
    -8.0,                    !- Time Zone {hr}
    53.00;                   !- Elevation {m}


!-   ===========  ALL OBJECTS IN CLASS: SIZINGPERIOD:DESIGNDAY ===========

SizingPeriod:DesignDay,
    Los Angeles Intl Arpt Ann Htg 99.6% Condns DB,  !- Name
    6.9,                     !- Maximum Dry-Bulb Temperature {C}
    0.0,                     !- Daily Temperature Range {deltaC}
    6.9,                     !- Humidity Indicating Conditions at Maximum Dry-Bulb
    100965.,                 !- Barometric Pressure {Pa}
    2.4,                     !- Wind Speed {m/s}
    90,                      !- Wind Direction {deg}
    0.00,                    !- Sky Clearness
    0,                       !- Rain Indicator
    0,                       !- Snow Indicator
    21,                      !- Day of Month
    1,                       !- Month
    WinterDesignDay,         !- Day Type
    0,                       !- Daylight Saving Time Indicator
    WetBulb;                 !- Humidity Indicating Type

SizingPeriod:DesignDay,
    Los Angeles Intl Arpt Ann Htg 99% Condns DB,  !- Name
    8,                       !- Maximum Dry-Bulb Temperature {C}
    0.0,                     !- Daily Temperature Range {deltaC}
    8,                       !- Humidity Indicating Conditions at Maximum Dry-Bulb
    100965.,                 !- Barometric Pressure {Pa}
    2.4,                     !- Wind Speed {m/s}
    90,                      !- Wind Direction {deg}
    0.00,                    !- Sky Clearness
    0,                       !- Rain Indicator
    0,                       !- Snow Indicator
    21,                      !- Day of Month
    1,                       !- Month
    WinterDesignDay,         !- Day Type
    0,                       !- Daylight Saving Time Indicator
    WetBulb;                 !- Humidity Indicating Type

SizingPeriod:DesignDay,
    Los Angeles Intl Arpt Ann Hum_n 99.6% Condns DP=>MCDB,  !- Name
    15.2,                    !- Maximum Dry-Bulb Temperature {C}
    0.0,                     !- Daily Temperature Range {deltaC}
    -10.6,                   !- Humidity Indicating Conditions at Maximum Dry-Bulb
    100965.,                 !- Barometric Pressure {Pa}
    2.4,                     !- Wind Speed {m/s}
    90,                      !- Wind Direction {deg}
    0.00,                    !- Sky Clearness
    0,                       !- Rain Indicator
    0,                       !- Snow Indicator
    21,                      !- Day of Month
    1,                       !- Month
    WinterDesignDay,         !- Day Type
    0,                       !- Daylight Saving Time Indicator
    DewPoint;                !- Humidity Indicating Type

SizingPeriod:DesignDay,
    Los Angeles Intl Arpt Ann Hum_n 99% Condns DP=>MCDB,  !- Name
    15.2,                    !- Maximum Dry-Bulb Temperature {C}
    0.0,                     !- Daily Temperature Range {deltaC}
    -7.7,                    !- Humidity Indicating Conditions at Maximum Dry-Bulb
    100965.,                 !- Barometric Pressure {Pa}
    2.4,                     !- Wind Speed {m/s}
    90,                      !- Wind Direction {deg}
    0.00,                    !- Sky Clearness
    0,                       !- Rain Indicator
    0,                       !- Snow Indicator
    21,                      !- Day of Month
    1,                       !- Month
    WinterDesignDay,         !- Day Type
    0,                       !- Daylight Saving Time Indicator
    DewPoint;                !- Humidity Indicating Type

SizingPeriod:DesignDay,
    Los Angeles Intl Arpt Ann Htg Wind 99.6% Condns WS=>MCDB,  !- Name
    13.6,                    !- Maximum Dry-Bulb Temperature {C}
    0.0,                     !- Daily Temperature Range {deltaC}
    13.6,                    !- Humidity Indicating Conditions at Maximum Dry-Bulb
    100965.,                 !- Barometric Pressure {Pa}
    10.9,                    !- Wind Speed {m/s}
    90,                      !- Wind Direction {deg}
    0.00,                    !- Sky Clearness
    0,                       !- Rain Indicator
    0,                       !- Snow Indicator
    21,                      !- Day of Month
    1,                       !- Month
    WinterDesignDay,         !- Day Type
    0,                       !- Daylight Saving Time Indicator
    WetBulb;                 !- Humidity Indicating Type

SizingPeriod:DesignDay,
    Los Angeles Intl Arpt Ann Htg Wind 99% Condns WS=>MCDB,  !- Name
    13.8,                    !- Maximum Dry-Bulb Temperature {C}
    0.0,                     !- Daily Temperature Range {deltaC}
    13.8,                    !- Humidity Indicating Conditions at Maximum Dry-Bulb
    100965.,                 !- Barometric Pressure {Pa}
    9.1,                     !- Wind Speed {m/s}
    90,                      !- Wind Direction {deg}
    0.00,                    !- Sky Clearness
    0,                       !- Rain Indicator
    0,                       !- Snow Indicator
    21,                      !- Day of Month
    1,                       !- Month
    WinterDesignDay,         !- Day Type
    0,                       !- Daylight Saving Time Indicator
    WetBulb;                 !- Humidity Indicating Type

SizingPeriod:DesignDay,
    Los Angeles Intl Arpt Ann Clg .4% Condns DB=>MWB,  !- Name
    28.7,                    !- Maximum Dry-Bulb Temperature {C}
    6,                       !- Daily Temperature Range {deltaC}
    17.9,                    !- Humidity Indicating Conditions at Maximum Dry-Bulb
    100965.,                 !- Barometric Pressure {Pa}
    4.1,                     !- Wind Speed {m/s}
    250,                     !- Wind Direction {deg}
    1.00,                    !- Sky Clearness
    0,                       !- Rain Indicator
    0,                       !- Snow Indicator
    21,                      !- Day of Month
    8,                       !- Month
    SummerDesignDay,         !- Day Type
    0,                       !- Daylight Saving Time Indicator
    WetBulb;                 !- Humidity Indicating Type

SizingPeriod:DesignDay,
    Los Angeles Intl Arpt Ann Clg 1% Condns DB=>MWB,  !- Name
    26.9,                    !- Maximum Dry-Bulb Temperature {C}
    6,                       !- Daily Temperature Range {deltaC}
    18.2,                    !- Humidity Indicating Conditions at Maximum Dry-Bulb
    100965.,                 !- Barometric Pressure {Pa}
    4.1,                     !- Wind Speed {m/s}
    250,                     !- Wind Direction {deg}
    1.00,                    !- Sky Clearness
    0,                       !- Rain Indicator
    0,                       !- Snow Indicator
    21,                      !- Day of Month
    8,                       !- Month
    SummerDesignDay,         !- Day Type
    0,                       !- Daylight Saving Time Indicator
    WetBulb;                 !- Humidity Indicating Type

SizingPeriod:DesignDay,
    Los Angeles Intl Arpt Ann Clg 2% Condns DB=>MWB,  !- Name
    25.4,                    !- Maximum Dry-Bulb Temperature {C}
    6,                       !- Daily Temperature Range {deltaC}
    18.2,                    !- Humidity Indicating Conditions at Maximum Dry-Bulb
    100965.,                 !- Barometric Pressure {Pa}
    4.1,                     !- Wind Speed {m/s}
    250,                     !- Wind Direction {deg}
    1.00,                    !- Sky Clearness
    0,                       !- Rain Indicator
    0,                       !- Snow Indicator
    21,                      !- Day of Month
    8,                       !- Month
    SummerDesignDay,         !- Day Type
    0,                       !- Daylight Saving Time Indicator
    WetBulb;                 !- Humidity Indicating Type

SizingPeriod:DesignDay,
    Los Angeles Intl Arpt Ann Clg .4% Condns WB=>MDB,  !- Name
    25.6,                    !- Maximum Dry-Bulb Temperature {C}
    6,                       !- Daily Temperature Range {deltaC}
    21.2,                    !- Humidity Indicating Conditions at Maximum Dry-Bulb
    100965.,                 !- Barometric Pressure {Pa}
    4.1,                     !- Wind Speed {m/s}
    250,                     !- Wind Direction {deg}
    1.00,                    !- Sky Clearness
    0,                       !- Rain Indicator
    0,                       !- Snow Indicator
    21,                      !- Day of Month
    8,                       !- Month
    SummerDesignDay,         !- Day Type
    0,                       !- Daylight Saving Time Indicator
    WetBulb;                 !- Humidity Indicating Type

SizingPeriod:DesignDay,
    Los Angeles Intl Arpt Ann Clg 1% Condns WB=>MDB,  !- Name
    24.5,                    !- Maximum Dry-Bulb Temperature {C}
    6,                       !- Daily Temperature Range {deltaC}
    20.6,                    !- Humidity Indicating Conditions at Maximum Dry-Bulb
    100965.,                 !- Barometric Pressure {Pa}
    4.1,                     !- Wind Speed {m/s}
    250,                     !- Wind Direction {deg}
    1.00,                    !- Sky Clearness
    0,                       !- Rain Indicator
    0,                       !- Snow Indicator
    21,                      !- Day of Month
    8,                       !- Month
    SummerDesignDay,         !- Day Type
    0,                       !- Daylight Saving Time Indicator
    WetBulb;                 !- Humidity Indicating Type

SizingPeriod:DesignDay,
    Los Angeles Intl Arpt Ann Clg 2% Condns WB=>MDB,  !- Name
    23.7,                    !- Maximum Dry-Bulb Temperature {C}
    6,                       !- Daily Temperature Range {deltaC}
    20,                      !- Humidity Indicating Conditions at Maximum Dry-Bulb
    100965.,                 !- Barometric Pressure {Pa}
    4.1,                     !- Wind Speed {m/s}
    250,                     !- Wind Direction {deg}
    1.00,                    !- Sky Clearness
    0,                       !- Rain Indicator
    0,                       !- Snow Indicator
    21,                      !- Day of Month
    8,                       !- Month
    SummerDesignDay,         !- Day Type
    0,                       !- Daylight Saving Time Indicator
    WetBulb;                 !- Humidity Indicating Type

SizingPeriod:DesignDay,
    Los Angeles Intl Arpt Ann Clg .4% Condns DP=>MDB,  !- Name
    23.3,                    !- Maximum Dry-Bulb Temperature {C}
    6,                       !- Daily Temperature Range {deltaC}
    19.7,                    !- Humidity Indicating Conditions at Maximum Dry-Bulb
    100965.,                 !- Barometric Pressure {Pa}
    4.1,                     !- Wind Speed {m/s}
    250,                     !- Wind Direction {deg}
    1.00,                    !- Sky Clearness
    0,                       !- Rain Indicator
    0,                       !- Snow Indicator
    21,                      !- Day of Month
    8,                       !- Month
    SummerDesignDay,         !- Day Type
    0,                       !- Daylight Saving Time Indicator
    DewPoint;                !- Humidity Indicating Type

SizingPeriod:DesignDay,
    Los Angeles Intl Arpt Ann Clg 1% Condns DP=>MDB,  !- Name
    22.8,                    !- Maximum Dry-Bulb Temperature {C}
    6,                       !- Daily Temperature Range {deltaC}
    19,                      !- Humidity Indicating Conditions at Maximum Dry-Bulb
    100965.,                 !- Barometric Pressure {Pa}
    4.1,                     !- Wind Speed {m/s}
    250,                     !- Wind Direction {deg}
    1.00,                    !- Sky Clearness
    0,                       !- Rain Indicator
    0,                       !- Snow Indicator
    21,                      !- Day of Month
    8,                       !- Month
    SummerDesignDay,         !- Day Type
    0,                       !- Daylight Saving Time Indicator
    DewPoint;                !- Humidity Indicating Type

SizingPeriod:DesignDay,
    Los Angeles Intl Arpt Ann Clg 2% Condns DP=>MDB,  !- Name
    22.2,                    !- Maximum Dry-Bulb Temperature {C}
    6,                       !- Daily Temperature Range {deltaC}
    18.4,                    !- Humidity Indicating Conditions at Maximum Dry-Bulb
    100965.,                 !- Barometric Pressure {Pa}
    4.1,                     !- Wind Speed {m/s}
    250,                     !- Wind Direction {deg}
    1.00,                    !- Sky Clearness
    0,                       !- Rain Indicator
    0,                       !- Snow Indicator
    21,                      !- Day of Month
    8,                       !- Month
    SummerDesignDay,         !- Day Type
    0,                       !- Daylight Saving Time Indicator
    DewPoint;                !- Humidity Indicating Type

SizingPeriod:DesignDay,
    Los Angeles Intl Arpt Ann Clg .4% Condns Enth=>MDB,  !- Name
    25.7,                    !- Maximum Dry-Bulb Temperature {C}
    6,                       !- Daily Temperature Range {deltaC}
    61.9,                    !- Humidity Indicating Conditions at Maximum Dry-Bulb
    100965.,                 !- Barometric Pressure {Pa}
    4.1,                     !- Wind Speed {m/s}
    250,                     !- Wind Direction {deg}
    1.00,                    !- Sky Clearness
    0,                       !- Rain Indicator
    0,                       !- Snow Indicator
    21,                      !- Day of Month
    8,                       !- Month
    SummerDesignDay,         !- Day Type
    0,                       !- Daylight Saving Time Indicator
    Enthalpy;                !- Humidity Indicating Type

SizingPeriod:DesignDay,
    Los Angeles Intl Arpt Ann Clg 1% Condns Enth=>MDB,  !- Name
    24.5,                    !- Maximum Dry-Bulb Temperature {C}
    6,                       !- Daily Temperature Range {deltaC}
    59.4,                    !- Humidity Indicating Conditions at Maximum Dry-Bulb
    100965.,                 !- Barometric Pressure {Pa}
    4.1,                     !- Wind Speed {m/s}
    250,                     !- Wind Direction {deg}
    1.00,                    !- Sky Clearness
    0,                       !- Rain Indicator
    0,                       !- Snow Indicator
    21,                      !- Day of Month
    8,                       !- Month
    SummerDesignDay,         !- Day Type
    0,                       !- Daylight Saving Time Indicator
    Enthalpy;                !- Humidity Indicating Type

SizingPeriod:DesignDay,
    Los Angeles Intl Arpt Ann Clg 2% Condns Enth=>MDB,  !- Name
    23.7,                    !- Maximum Dry-Bulb Temperature {C}
    6,                       !- Daily Temperature Range {deltaC}
    57.4,                    !- Humidity Indicating Conditions at Maximum Dry-Bulb
    100965.,                 !- Barometric Pressure {Pa}
    4.1,                     !- Wind Speed {m/s}
    250,                     !- Wind Direction {deg}
    1.00,                    !- Sky Clearness
    0,                       !- Rain Indicator
    0,                       !- Snow Indicator
    21,                      !- Day of Month
    8,                       !- Month
    SummerDesignDay,         !- Day Type
    0,                       !- Daylight Saving Time Indicator
    Enthalpy;                !- Humidity Indicating Type


!-   ===========  ALL OBJECTS IN CLASS: RUNPERIOD ===========

RunPeriod,
    ,                        !- Name
    1,                       !- Begin Month
    1,                       !- Begin Day of Month
    12,                      !- End Month
    31,                      !- End Day of Month
    UseWeatherFile,          !- Day of Week for Start Day
    No,                      !- Use Weather File Holidays and Special Days
    No,                      !- Use Weather File Daylight Saving Period
    Yes,                     !- Apply Weekend Holiday Rule
    Yes,                     !- Use Weather File Rain Indicators
    Yes;                     !- Use Weather File Snow Indicators


!-   ===========  ALL OBJECTS IN CLASS: RUNPERIODCONTROL:SPECIALDAYS ===========

RunPeriodControl:SpecialDays,
    New Years Day,           !- Name
    January 1,               !- Start Date
    1,                       !- Duration {days}
    Holiday;                 !- Special Day Type

RunPeriodControl:SpecialDays,
    Veterans Day,            !- Name
    November 11,             !- Start Date
    1,                       !- Duration {days}
    Holiday;                 !- Special Day Type

RunPeriodControl:SpecialDays,
    Christmas,               !- Name
    December 25,             !- Start Date
    1,                       !- Duration {days}
    Holiday;                 !- Special Day Type

RunPeriodControl:SpecialDays,
    Independence Day,        !- Name
    July 4,                  !- Start Date
    1,                       !- Duration {days}
    Holiday;                 !- Special Day Type

RunPeriodControl:SpecialDays,
    MLK Day,                 !- Name
    3rd Monday in January,   !- Start Date
    1,                       !- Duration {days}
    Holiday;                 !- Special Day Type

RunPeriodControl:SpecialDays,
    Presidents Day,          !- Name
    3rd Monday in February,  !- Start Date
    1,                       !- Duration {days}
    Holiday;                 !- Special Day Type

RunPeriodControl:SpecialDays,
    Memorial Day,            !- Name
    Last Monday in May,      !- Start Date
    1,                       !- Duration {days}
    Holiday;                 !- Special Day Type

RunPeriodControl:SpecialDays,
    Labor Day,               !- Name
    1st Monday in September, !- Start Date
    1,                       !- Duration {days}
    Holiday;                 !- Special Day Type

RunPeriodControl:SpecialDays,
    Columbus Day,            !- Name
    2nd Monday in October,   !- Start Date
    1,                       !- Duration {days}
    Holiday;                 !- Special Day Type

RunPeriodControl:SpecialDays,
    Thanksgiving,            !- Name
    4th Thursday in November,!- Start Date
    1,                       !- Duration {days}
    Holiday;                 !- Special Day Type


!-   ===========  ALL OBJECTS IN CLASS: RUNPERIODCONTROL:DAYLIGHTSAVINGTIME ===========

RunPeriodControl:DaylightSavingTime,
    1st Sunday in April,     !- Start Date
    Last Sunday in October;  !- End Date


!-   ===========  ALL OBJECTS IN CLASS: SITE:GROUNDTEMPERATURE:BUILDINGSURFACE ===========

Site:GroundTemperature:BuildingSurface,
    16.82,                   !- January Ground Temperature {C}
    16.82,                   !- February Ground Temperature {C}
    16.82,                   !- March Ground Temperature {C}
    16.82,                   !- April Ground Temperature {C}
    16.82,                   !- May Ground Temperature {C}
    16.82,                   !- June Ground Temperature {C}
    16.82,                   !- July Ground Temperature {C}
    16.82,                   !- August Ground Temperature {C}
    16.82,                   !- September Ground Temperature {C}
    16.82,                   !- October Ground Temperature {C}
    16.82,                   !- November Ground Temperature {C}
    16.82;                   !- December Ground Temperature {C}


!-   ===========  ALL OBJECTS IN CLASS: SCHEDULETYPELIMITS ===========

ScheduleTypeLimits,
    Any Number;              !- Name

ScheduleTypeLimits,
    Fraction,                !- Name
    0.0,                     !- Lower Limit Value
    1.0,                     !- Upper Limit Value
    CONTINUOUS;              !- Numeric Type

ScheduleTypeLimits,
    Temperature,             !- Name
    -60,                     !- Lower Limit Value
    200,                     !- Upper Limit Value
    CONTINUOUS;              !- Numeric Type

ScheduleTypeLimits,
    On/Off,                  !- Name
    0,                       !- Lower Limit Value
    1,                       !- Upper Limit Value
    DISCRETE;                !- Numeric Type

ScheduleTypeLimits,
    Control Type,            !- Name
    0,                       !- Lower Limit Value
    4,                       !- Upper Limit Value
    DISCRETE;                !- Numeric Type

ScheduleTypeLimits,
    Humidity,                !- Name
    10,                      !- Lower Limit Value
    90,                      !- Upper Limit Value
    CONTINUOUS;              !- Numeric Type

ScheduleTypeLimits,
    Number;                  !- Name

ScheduleTypeLimits,
    PMV,                     !- Name
    -5.0,                    !- Lower Limit Value
    5.0,                     !- Upper Limit Value
    Continuous;              !- Numeric Type

ScheduleTypeLimits,
    clo,                     !- Name
    0.0,                     !- Lower Limit Value
    8.0,                     !- Upper Limit Value
    Continuous;              !- Numeric Type

ScheduleTypeLimits,
    On_Off,                  !- Name
    0,                       !- Lower Limit Value
    1,                       !- Upper Limit Value
    Discrete;                !- Numeric Type

ScheduleTypeLimits,
    AnyNumber;               !- Name

ScheduleTypeLimits,
    ControlType,             !- Name
    0,                       !- Lower Limit Value
    4,                       !- Upper Limit Value
    Discrete;                !- Numeric Type

ScheduleTypeLimits,
    HVACTemplate Any Number; !- Name


!-   ===========  ALL OBJECTS IN CLASS: SCHEDULE:COMPACT ===========

Schedule:Compact,
    Always On,               !- Name
    Fraction,                !- Schedule Type Limits Name
    Through: 12/31,          !- Field 1
    For: AllDays,            !- Field 2
    Until: 24:00,            !- Field 3
    1.0;                     !- Field 4

Schedule:Compact,
    Always Off,              !- Name
    Fraction,                !- Schedule Type Limits Name
    Through: 12/31,          !- Field 1
    For: AllDays,            !- Field 2
    Until: 24:00,            !- Field 3
    0.0;                     !- Field 4

Schedule:Compact,
    Multifamily_OneZone_Occupancy,  !- Name
    Fraction,                !- Schedule Type Limits Name
    Through: 12/31,          !- Field 1
    For: AllDays,            !- Field 2
    Until: 07:00,            !- Field 3
    0.67,                    !- Field 4
    Until: 08:00,            !- Field 5
    0.49,                    !- Field 6
    Until: 17:00,            !- Field 7
    0.21,                    !- Field 8
    Until: 24:00,            !- Field 9
    0.67;                    !- Field 10

Schedule:Compact,
    Multifamily_TwoZoneBedroom_Occupancy,  !- Name
    Fraction,                !- Schedule Type Limits Name
    Through: 12/31,          !- Field 1
    For: AllDays,            !- Field 2
    Until: 06:00,            !- Field 3
    0.67,                    !- Field 4
    Until: 07:00,            !- Field 5
    0.45,                    !- Field 6
    Until: 08:00,            !- Field 7
    0.27,                    !- Field 8
    Until: 19:00,            !- Field 9
    0.0,                     !- Field 10
    Until: 21:00,            !- Field 11
    0.21,                    !- Field 12
    Until: 22:00,            !- Field 13
    0.33,                    !- Field 14
    Until: 24:00,            !- Field 15
    0.67;                    !- Field 16

Schedule:Compact,
    Multifamily_TwoZoneOtherRooms_Occupancy,  !- Name
    Fraction,                !- Schedule Type Limits Name
    Through: 12/31,          !- Field 1
    For: AllDays,            !- Field 2
    Until: 06:00,            !- Field 3
    0.0,                     !- Field 4
    Until: 17:00,            !- Field 5
    0.21,                    !- Field 6
    Until: 19:00,            !- Field 7
    0.67,                    !- Field 8
    Until: 21:00,            !- Field 9
    0.45,                    !- Field 10
    Until: 22:00,            !- Field 11
    0.33,                    !- Field 12
    Until: 24:00,            !- Field 13
    0.0;                     !- Field 14

Schedule:Compact,
    ASHRAE_90.2_Residential_SingleZone,  !- Name
    Fraction,                !- Schedule Type Limits Name
    Through: 12/31,          !- Field 1
    For: AllDays,            !- Field 2
    Until: 01:00,            !- Field 3
    0.024,                   !- Field 4
    Until: 02:00,            !- Field 5
    0.022,                   !- Field 6
    Until: 03:00,            !- Field 7
    0.021,                   !- Field 8
    Until: 04:00,            !- Field 9
    0.021,                   !- Field 10
    Until: 05:00,            !- Field 11
    0.021,                   !- Field 12
    Until: 06:00,            !- Field 13
    0.026,                   !- Field 14
    Until: 07:00,            !- Field 15
    0.038,                   !- Field 16
    Until: 08:00,            !- Field 17
    0.059,                   !- Field 18
    Until: 09:00,            !- Field 19
    0.056,                   !- Field 20
    Until: 10:00,            !- Field 21
    0.06,                    !- Field 22
    Until: 11:00,            !- Field 23
    0.059,                   !- Field 24
    Until: 12:00,            !- Field 25
    0.046,                   !- Field 26
    Until: 13:00,            !- Field 27
    0.045,                   !- Field 28
    Until: 14:00,            !- Field 29
    0.03,                    !- Field 30
    Until: 15:00,            !- Field 31
    0.038,                   !- Field 32
    Until: 16:00,            !- Field 33
    0.031,                   !- Field 34
    Until: 17:00,            !- Field 35
    0.057,                   !- Field 36
    Until: 18:00,            !- Field 37
    0.064,                   !- Field 38
    Until: 19:00,            !- Field 39
    0.064,                   !- Field 40
    Until: 20:00,            !- Field 41
    0.052,                   !- Field 42
    Until: 21:00,            !- Field 43
    0.05,                    !- Field 44
    Until: 22:00,            !- Field 45
    0.055,                   !- Field 46
    Until: 23:00,            !- Field 47
    0.044,                   !- Field 48
    Until: 24:00,            !- Field 49
    0.027;                   !- Field 50

Schedule:Compact,
    ASHRAE_90.2_Residential_MultZone_Living,  !- Name
    Fraction,                !- Schedule Type Limits Name
    Through: 12/31,          !- Field 1
    For: AllDays,            !- Field 2
    Until: 01:00,            !- Field 3
    0.0161,                  !- Field 4
    Until: 02:00,            !- Field 5
    0.0148,                  !- Field 6
    Until: 03:00,            !- Field 7
    0.0114,                  !- Field 8
    Until: 04:00,            !- Field 9
    0.0113,                  !- Field 10
    Until: 05:00,            !- Field 11
    0.0121,                  !- Field 12