
Version,                  
    7.0;                      !- Version Identifier

SimulationControl,        
    Yes,                      !- Do Zone Sizing Calculation
    Yes,                      !- Do System Sizing Calculation
    No,                       !- Do Plant Sizing Calculation
    No,                       !- Run Simulation for Sizing Periods
    Yes;                      !- Run Simulation for Weather File Run Periods

Building,                 
    Building,                 !- Name
    30.0,                     !- North Axis
    City,                     !- Terrain
    0.04,                     !- Loads Convergence Tolerance Value
    0.4,                      !- Temperature Convergence Tolerance Value
    FullExterior,             !- Solar Distribution
    25,                       !- Maximum Number of Warmup Days
    6;                        !- Minimum Number of Warmup Days

SurfaceConvectionAlgorithm:Inside,
    Simple;                   !- Algorithm

SurfaceConvectionAlgorithm:Outside,
    SimpleCombined;           !- Algorithm

HeatBalanceAlgorithm,     
    ConductionTransferFunction;    !- Algorithm

Timestep,                 
    4;                        !- Number of Timesteps per Hour

ConvergenceLimits,        
    1,                        !- Minimum System Timestep
    20,                       !- Maximum HVAC Iterations
    4,                        !- Minimum Plant Iterations
    10;                       !- Maximum Plant Iterations

Site:Location,            
    CHICAGO_IL_USA TMY2-94846,    !- Name
    41.78,                    !- Latitude
    -87.75,                   !- Longitude
    -6.0,                     !- Time Zone
    190.0;                    !- Elevation

SizingPeriod:DesignDay,   
    CHICAGO_IL_USA Annual Heating 99% Design Conditions DB,    !- Name
    -17.3,                    !- Maximum DryBulb Temperature
    0.0,                      !- Daily DryBulb Temperature Range
    -17.3,                    !- Humidity Indicating Conditions at Maximum DryBulb
    99063.0,                  !- Barometric Pressure
    4.9,                      !- Wind Speed
    270.0,                    !- Wind Direction
    0.0,                      !- Sky Clearness
    0,                        !- Rain Indicator
    0,                        !- Snow Indicator
    21,                       !- Day of Month
    1,                        !- Month
    WinterDesignDay,          !- Day Type
    0,                        !- Daylight Saving Time Indicator
    WetBulb;                  !- Humidity Indicating Type

SizingPeriod:DesignDay,   
    CHICAGO_IL_USA Annual Cooling 1% Design Conditions DB/MCWB,    !- Name
    31.5,                     !- Maximum DryBulb Temperature
    10.7,                     !- Daily DryBulb Temperature Range
    23.0,                     !- Humidity Indicating Conditions at Maximum DryBulb
    99063.0,                  !- Barometric Pressure
    5.3,                      !- Wind Speed
    230.0,                    !- Wind Direction
    1.0,                      !- Sky Clearness
    0,                        !- Rain Indicator
    0,                        !- Snow Indicator
    21,                       !- Day of Month
    7,                        !- Month
    SummerDesignDay,          !- Day Type
    0,                        !- Daylight Saving Time Indicator
    WetBulb;                  !- Humidity Indicating Type

RunPeriod,                
    ,                         !- Name
    1,                        !- Begin Month
    14,                       !- Begin Day of Month
    1,                        !- End Month
    14,                       !- End Day of Month
    Tuesday,                  !- Day of Week for Start Day
    Yes,                      !- Use Weather File Holidays and Special Days
    Yes,                      !- Use Weather File Daylight Saving Period
    No,                       !- Apply Weekend Holiday Rule
    Yes,                      !- Use Weather File Rain Indicators
    Yes;                      !- Use Weather File Snow Indicators

RunPeriod,                
    ,                         !- Name
    7,                        !- Begin Month
    7,                        !- Begin Day of Month
    7,                        !- End Month
    7,                        !- End Day of Month
    Tuesday,                  !- Day of Week for Start Day
    Yes,                      !- Use Weather File Holidays and Special Days
    Yes,                      !- Use Weather File Daylight Saving Period
    No,                       !- Apply Weekend Holiday Rule
    Yes,                      !- Use Weather File Rain Indicators
    Yes;                      !- Use Weather File Snow Indicators

Site:GroundTemperature:BuildingSurface,
    20.03,                    !- January Ground Temperature
    20.03,                    !- February Ground Temperature
    20.13,                    !- March Ground Temperature
    20.3,                     !- April Ground Temperature
    20.43,                    !- May Ground Temperature
    20.52,                    !- June Ground Temperature
    20.62,                    !- July Ground Temperature
    20.77,                    !- August Ground Temperature
    20.78,                    !- September Ground Temperature
    20.55,                    !- October Ground Temperature
    20.44,                    !- November Ground Temperature
    20.2;                     !- December Ground Temperature

ScheduleTypeLimits,       
    Any Number;               !- Name

ScheduleTypeLimits,       
    Fraction,                 !- Name
    0.0,                      !- Lower Limit Value
    1.0,                      !- Upper Limit Value
    CONTINUOUS;               !- Numeric Type

ScheduleTypeLimits,       
    Temperature,              !- Name
    -60,                      !- Lower Limit Value
    200,                      !- Upper Limit Value
    CONTINUOUS,               !- Numeric Type
    Temperature;              !- Unit Type

ScheduleTypeLimits,       
    Control Type,             !- Name
    0,                        !- Lower Limit Value
    4,                        !- Upper Limit Value
    DISCRETE;                 !- Numeric Type

ScheduleTypeLimits,       
    On/Off,                   !- Name
    0,                        !- Lower Limit Value
    1,                        !- Upper Limit Value
    DISCRETE;                 !- Numeric Type

ScheduleTypeLimits,       
    FlowRate,                 !- Name
    0.0,                      !- Lower Limit Value
    10,                       !- Upper Limit Value
    CONTINUOUS;               !- Numeric Type

Schedule:Compact,         
    OCCUPY-1,                 !- Name
    Fraction,                 !- Schedule Type Limits Name
    Through: 12/31,           !- Field 1
    For: Weekdays SummerDesignDay WinterDesignDay,    !- Field 2
    Until: 9:00,              !- Field 3
    0.0,                      !- Field 4
    Until: 12:00,             !- Field 5
    1.0,                      !- Field 6
    Until: 13:00,             !- Field 7
    0.8,                      !- Field 8
    Until: 14:00,             !- Field 9
    0.4,                      !- Field 10
    Until: 15:00,             !- Field 11
    0.8,                      !- Field 12
    Until: 17:00,             !- Field 13
    1.0,                      !- Field 14
    Until: 24:00,             !- Field 15
    0.0,                      !- Field 16
    For: AllOtherDays,        !- Field 17
    Until: 24:00,             !- Field 18
    0.0;                      !- Field 19

Schedule:Compact,         
    LIGHTS-1,                 !- Name
    Fraction,                 !- Schedule Type Limits Name
    Through: 12/31,           !- Field 1
    For: Weekdays SummerDesignDay WinterDesignDay,    !- Field 2
    Until: 9:00,              !- Field 3
    0.05,                     !- Field 4
    Until: 10:00,             !- Field 5
    0.9,                      !- Field 6
    Until: 11:00,             !- Field 7
    0.95,                     !- Field 8
    Until: 12:00,             !- Field 9
    1.0,                      !- Field 10
    Until: 13:00,             !- Field 11
    0.95,                     !- Field 12
    Until: 14:00,             !- Field 13
    0.8,                      !- Field 14
    Until: 15:00,             !- Field 15
    0.9,                      !- Field 16
    Until: 17:00,             !- Field 17
    1.0,                      !- Field 18
    Until: 24:00,             !- Field 19
    0.05,                     !- Field 20
    For: AllOtherDays,        !- Field 21
    Until: 24:00,             !- Field 22
    0.05;                     !- Field 23

Schedule:Compact,         
    EQUIP-1,                  !- Name
    Fraction,                 !- Schedule Type Limits Name
    Through: 12/31,           !- Field 1
    For: Weekdays SummerDesignDay WinterDesignDay,    !- Field 2
    Until: 9:00,              !- Field 3
    0.02,                     !- Field 4
    Until: 10:00,             !- Field 5
    0.4,                      !- Field 6
    Until: 15:00,             !- Field 7
    0.9,                      !- Field 8
    Until: 16:00,             !- Field 9
    0.8,                      !- Field 10
    Until: 17:00,             !- Field 11
    0.7,                      !- Field 12
    Until: 24:00,             !- Field 13
    0.02,                     !- Field 14
    For: CustomDay1 CustomDay2,    !- Field 15
    Until: 9:00,              !- Field 16
    0.02,                     !- Field 17
    Until: 10:00,             !- Field 18
    0.4,                      !- Field 19
    Until: 15:00,             !- Field 20
    0.9,                      !- Field 21
    Until: 16:00,             !- Field 22
    0.8,                      !- Field 23
    Until: 17:00,             !- Field 24
    0.7,                      !- Field 25
    Until: 24:00,             !- Field 26
    0.02,                     !- Field 27
    For: AllOtherDays,        !- Field 28
    Until: 24:00,             !- Field 29
    0.2;                      !- Field 30

Schedule:Compact,         
    INFIL-SCH,                !- Name
    Fraction,                 !- Schedule Type Limits Name
    Through: 3/31,            !- Field 1
    For: Alldays,             !- Field 2
    Until: 24:00,             !- Field 3
    1.0,                      !- Field 4
    Through: 10/31,           !- Field 5
    For: Alldays,             !- Field 6
    Until: 24:00,             !- Field 7
    0.0,                      !- Field 8
    Through: 12/31,           !- Field 9
    For: Alldays,             !- Field 10
    Until: 24:00,             !- Field 11
    1.0;                      !- Field 12

Schedule:Compact,         
    ActSchd,                  !- Name
    Any Number,               !- Schedule Type Limits Name
    Through: 12/31,           !- Field 1
    For: Alldays,             !- Field 2
    Until: 24:00,             !- Field 3
    117.239997864;            !- Field 4

Schedule:Compact,         
    ShadeTransSch,            !- Name
    Fraction,                 !- Schedule Type Limits Name
    Through: 12/31,           !- Field 1
    For: Alldays,             !- Field 2
    Until: 24:00,             !- Field 3
    0.0;                      !- Field 4

Schedule:Compact,         
    Htg-SetP-Sch,             !- Name
    Temperature,              !- Schedule Type Limits Name
    Through: 12/31,           !- Field 1
    For: Weekends HoliDay,    !- Field 2
    Until: 7:00,              !- Field 3
    12.8,                     !- Field 4
    Until: 14:00,             !- Field 5
    21.1,                     !- Field 6
    Until: 24:00,             !- Field 7
    12.8,                     !- Field 8
    For: SummerDesignDay,     !- Field 9
    Until: 24:00,             !- Field 10
    21.1,                     !- Field 11
    For: WinterDesignDay,     !- Field 12
    Until: 24:00,             !- Field 13
    21.1,                     !- Field 14
    For: AllOtherDays,        !- Field 15
    Until: 7:00,              !- Field 16
    12.8,                     !- Field 17
    Until: 19:00,             !- Field 18
    21.1,                     !- Field 19
    Until: 24:00,             !- Field 20
    12.8;                     !- Field 21

Schedule:Compact,         
    Clg-SetP-Sch,             !- Name
    Temperature,              !- Schedule Type Limits Name
    Through: 12/31,           !- Field 1
    For: Weekends HoliDay,    !- Field 2
    Until: 7:00,              !- Field 3
    40.0,                     !- Field 4
    Until: 14:00,             !- Field 5
    25.0,                     !- Field 6
    Until: 24:00,             !- Field 7
    32.2,                     !- Field 8
    For: SummerDesignDay,     !- Field 9
    Until: 24:00,             !- Field 10
    25.0,                     !- Field 11
    For: WinterDesignDay,     !- Field 12
    Until: 24:00,             !- Field 13
    25.0,                     !- Field 14
    For: AllOtherDays,        !- Field 15
    Until: 7:00,              !- Field 16
    40.0,                     !- Field 17
    Until: 19:00,             !- Field 18
    25.0,                     !- Field 19
    Until: 24:00,             !- Field 20
    40.0;                     !- Field 21

Schedule:Compact,         
    Zone Control Type Sched,    !- Name
    Control Type,             !- Schedule Type Limits Name
    Through: 12/31,           !- Field 1
    For: AllDays,             !- Field 2
    Until: 24:00,             !- Field 3
    4;                        !- Field 4

Schedule:Compact,         
    Min OA Sched,             !- Name
    Fraction,                 !- Schedule Type Limits Name
    Through: 12/31,           !- Field 1
    For: Weekdays SummerDesignDay WinterDesignDay,    !- Field 2
    Until: 7:00,              !- Field 3
    0.02,                     !- Field 4
    Until: 19:00,             !- Field 5
    1.0,                      !- Field 6
    Until: 24:00,             !- Field 7
    0.02,                     !- Field 8
    For: AllOtherDays,        !- Field 9
    Until: 24:00,             !- Field 10
    0.02;                     !- Field 11

Schedule:Compact,         
    FanAvailSched,            !- Name
    Fraction,                 !- Schedule Type Limits Name
    Through: 3/31,            !- Field 1
    For: Alldays,             !- Field 2
    Until: 24:00,             !- Field 3
    1.0,                      !- Field 4
    Through: 9/30,            !- Field 5
    For: Weekdays,            !- Field 6
    Until: 7:00,              !- Field 7
    0.0,                      !- Field 8
    Until: 18:00,             !- Field 9
    1.0,                      !- Field 10
    Until: 24:00,             !- Field 11
    0.0,                      !- Field 12
    For: Weekends Holidays CustomDay1 CustomDay2,    !- Field 13
    Until: 24:00,             !- Field 14
    0.0,                      !- Field 15
    For: AllOtherDays,        !- Field 16
    Until: 24:00,             !- Field 17
    1.0,                      !- Field 18
    Through: 12/31,           !- Field 19
    For: Alldays,             !- Field 20
    Until: 24:00,             !- Field 21
    1.0;                      !- Field 22

Schedule:Compact,         
    CW Loop Temp Schedule,    !- Name
    Temperature,              !- Schedule Type Limits Name
    Through: 12/31,           !- Field 1
    For: Alldays,             !- Field 2
    Until: 24:00,             !- Field 3
    11.0;                     !- Field 4

Schedule:Compact,         
    HW Loop Temp Schedule,    !- Name
    Temperature,              !- Schedule Type Limits Name
    Through: 12/31,           !- Field 1
    For: Alldays,             !- Field 2
    Until: 24:00,             !- Field 3
    82.0;                     !- Field 4

Schedule:Compact,         
    PlantOnSched,             !- Name
    Fraction,                 !- Schedule Type Limits Name
    Through: 12/31,           !- Field 1
    For: Alldays,             !- Field 2
    Until: 24:00,             !- Field 3
    1.0;                      !- Field 4

Schedule:Compact,         
    Seasonal Reset Supply Air Temp Sch,    !- Name
    Temperature,              !- Schedule Type Limits Name
    Through: 12/31,           !- Field 1
    For: Alldays,             !- Field 2
    Until: 24:00,             !- Field 3
    17.2;                     !- Field 4

Schedule:Compact,         
    Heating Supply Air Temp Sch,    !- Name
    Temperature,              !- Schedule Type Limits Name
    Through: 12/31,           !- Field 1
    For: Alldays,             !- Field 2
    Until: 24:00,             !- Field 3
    10.0;                     !- Field 4

Schedule:Compact,         
    Dehum Supply Air Temp Sch,    !- Name
    Temperature,              !- Schedule Type Limits Name
    Through: 12/31,           !- Field 1
    For: Alldays,             !- Field 2
    Until: 24:00,             !- Field 3
    12.0;                     !- Field 4

Schedule:Compact,         
    CoolingCoilAvailSched,    !- Name
    Fraction,                 !- Schedule Type Limits Name
    Through: 12/31,           !- Field 1
    For: Alldays,             !- Field 2
    Until: 24:00,             !- Field 3
    1.0;                      !- Field 4

Schedule:Compact,         
    CoolingPumpAvailSched,    !- Name
    Fraction,                 !- Schedule Type Limits Name
    Through: 12/31,           !- Field 1
    For: Alldays,             !- Field 2
    Until: 24:00,             !- Field 3
    1.0;                      !- Field 4

Schedule:Compact,         
    ReheatCoilAvailSched,     !- Name
    Fraction,                 !- Schedule Type Limits Name
    Through: 3/31,            !- Field 1
    For: Alldays,             !- Field 2
    Until: 24:00,             !- Field 3
    1.0,                      !- Field 4
    Through: 9/30,            !- Field 5
    For: Weekdays,            !- Field 6
    Until: 7:00,              !- Field 7
    0.0,                      !- Field 8
    Until: 18:00,             !- Field 9
    1.0,                      !- Field 10
    Until: 24:00,             !- Field 11
    0.0,                      !- Field 12
    For: Weekends Holidays CustomDay1 CustomDay2,    !- Field 13
    Until: 24:00,             !- Field 14
    0.0,                      !- Field 15
    For: AllOtherDays,        !- Field 16
    Until: 24:00,             !- Field 17
    1.0,                      !- Field 18
    Through: 12/31,           !- Field 19
    For: Alldays,             !- Field 20
    Until: 24:00,             !- Field 21
    1.0;                      !- Field 22

Schedule:Compact,         
    ReportSch,                !- Name
    On/Off,                   !- Schedule Type Limits Name
    Through: 1/13,            !- Field 1
    For: Alldays,             !- Field 2
    Until: 24:00,             !- Field 3
    0.0,                      !- Field 4
    Through: 1/14,            !- Field 5
    For: Alldays,             !- Field 6
    Until: 24:00,             !- Field 7
    1.0,                      !- Field 8
    Through: 7/6,             !- Field 9
    For: Alldays,             !- Field 10
    Until: 24:00,             !- Field 11
    0.0,                      !- Field 12
    Through: 7/9,             !- Field 13
    For: Alldays,             !- Field 14
    Until: 24:00,             !- Field 15
    1.0,                      !- Field 16
    Through: 12/31,           !- Field 17
    For: Alldays,             !- Field 18
    Until: 24:00,             !- Field 19
    0.0;                      !- Field 20

Material,                 
    WD10,                     !- Name
    MediumSmooth,             !- Roughness
    0.667,                    !- Thickness
    0.115,                    !- Conductivity
    513.0,                    !- Density
    1381.0,                   !- Specific Heat
    0.9,                      !- Thermal Absorptance
    0.78,                     !- Solar Absorptance
    0.78;                     !- Visible Absorptance

Material,                 
    RG01,                     !- Name
    Rough,                    !- Roughness
    0.0127,                   !- Thickness
    1.442,                    !- Conductivity
    881.0,                    !- Density
    1674.0,                   !- Specific Heat
    0.9,                      !- Thermal Absorptance
    0.65,                     !- Solar Absorptance
    0.65;                     !- Visible Absorptance

Material,                 
    BR01,                     !- Name
    VeryRough,                !- Roughness
    0.0094999997,             !- Thickness
    0.162,                    !- Conductivity
    1121.0,                   !- Density
    1464.0,                   !- Specific Heat
    0.9,                      !- Thermal Absorptance
    0.7,                      !- Solar Absorptance
    0.7;                      !- Visible Absorptance

Material,                 
    IN46,                     !- Name
    VeryRough,                !- Roughness
    0.076200001,              !- Thickness
    0.023,                    !- Conductivity
    24.0,                     !- Density
    1590.0,                   !- Specific Heat
    0.9,                      !- Thermal Absorptance
    0.5,                      !- Solar Absorptance
    0.5;                      !- Visible Absorptance

Material,                 
    WD01,                     !- Name
    MediumSmooth,             !- Roughness
    0.019099999,              !- Thickness
    0.115,                    !- Conductivity
    513.0,                    !- Density
    1381.0,                   !- Specific Heat
    0.9,                      !- Thermal Absorptance
    0.78,                     !- Solar Absorptance
    0.78;                     !- Visible Absorptance

Material,                 
    PW03,                     !- Name
    MediumSmooth,             !- Roughness
    0.0127,                   !- Thickness
    0.115,                    !- Conductivity
    545.0,                    !- Density
    1213.0,                   !- Specific Heat
    0.9,                      !- Thermal Absorptance
    0.78,                     !- Solar Absorptance
    0.78;                     !- Visible Absorptance

Material,                 
    IN02,                     !- Name
    Rough,                    !- Roughness
    0.090099998,              !- Thickness
    0.043000001,              !- Conductivity
    10.0,                     !- Density
    837.0,                    !- Specific Heat
    0.9,                      !- Thermal Absorptance
    0.75,                     !- Solar Absorptance
    0.75;                     !- Visible Absorptance

Material,                 
    GP01,                     !- Name
    MediumSmooth,             !- Roughness
    0.0127,                   !- Thickness
    0.16,                     !- Conductivity
    801.0,                    !- Density
    837.0,                    !- Specific Heat
    0.9,                      !- Thermal Absorptance
    0.75,                     !- Solar Absorptance
    0.75;                     !- Visible Absorptance

Material,                 
    GP02,                     !- Name
    MediumSmooth,             !- Roughness
    0.015900001,              !- Thickness
    0.16,                     !- Conductivity
    801.0,                    !- Density
    837.0,                    !- Specific Heat
    0.9,                      !- Thermal Absorptance
    0.75,                     !- Solar Absorptance
    0.75;                     !- Visible Absorptance

Material,                 
    CC03,                     !- Name
    MediumRough,              !- Roughness
    0.1016,                   !- Thickness
    1.31,                     !- Conductivity
    2243.0,                   !- Density
    837.0,                    !- Specific Heat
    0.9,                      !- Thermal Absorptance
    0.65,                     !- Solar Absorptance
    0.65;                     !- Visible Absorptance

Material:NoMass,          
    CP01,                     !- Name
    Rough,                    !- Roughness
    0.367,                    !- Thermal Resistance
    0.9,                      !- Thermal Absorptance
    0.75,                     !- Solar Absorptance
    0.75;                     !- Visible Absorptance

Material:NoMass,          
    MAT-SB-U,                 !- Name
    Rough,                    !- Roughness
    0.117406666,              !- Thermal Resistance
    0.65,                     !- Thermal Absorptance
    0.65,                     !- Solar Absorptance
    0.65;                     !- Visible Absorptance

Material:NoMass,          
    MAT-CLNG-1,               !- Name
    Rough,                    !- Roughness
    0.65225929,               !- Thermal Resistance
    0.65,                     !- Thermal Absorptance
    0.65,                     !- Solar Absorptance
    0.65;                     !- Visible Absorptance

Material:NoMass,          
    MAT-FLOOR-1,              !- Name
    Rough,                    !- Roughness
    3.522199631,              !- Thermal Resistance
    0.65,                     !- Thermal Absorptance
    0.65,                     !- Solar Absorptance
    0.65;                     !- Visible Absorptance

Material:AirGap,          
    AL21,                     !- Name
    0.157;                    !- Thermal Resistance

Material:AirGap,          
    AL23,                     !- Name
    0.153;                    !- Thermal Resistance

WindowMaterial:Glazing,   
    CLEAR 3MM,                !- Name
    SpectralAverage,          !- Optical Data Type
    ,                         !- Window Glass Spectral Data Set Name
    0.003,                    !- Thickness
    0.837,                    !- Solar Transmittance at Normal Incidence
    0.075,                    !- Front Side Solar Reflectance at Normal Incidence
    0.075,                    !- Back Side Solar Reflectance at Normal Incidence
    0.898,                    !- Visible Transmittance at Normal Incidence
    0.081,                    !- Front Side Visible Reflectance at Normal Incidence
    0.081,                    !- Back Side Visible Reflectance at Normal Incidence
    0.0,                      !- Infrared Transmittance at Normal Incidence
    0.84,                     !- Front Side Infrared Hemispherical Emissivity
    0.84,                     !- Back Side Infrared Hemispherical Emissivity
    0.9;                      !- Conductivity

WindowMaterial:Glazing,   
    GREY 3MM,                 !- Name
    SpectralAverage,          !- Optical Data Type
    ,                         !- Window Glass Spectral Data Set Name
    0.003,                    !- Thickness
    0.626,                    !- Solar Transmittance at Normal Incidence
    0.061,                    !- Front Side Solar Reflectance at Normal Incidence
    0.061,                    !- Back Side Solar Reflectance at Normal Incidence
    0.611,                    !- Visible Transmittance at Normal Incidence
    0.061,                    !- Front Side Visible Reflectance at Normal Incidence
    0.061,                    !- Back Side Visible Reflectance at Normal Incidence
    0.0,                      !- Infrared Transmittance at Normal Incidence
    0.84,                     !- Front Side Infrared Hemispherical Emissivity
    0.84,                     !- Back Side Infrared Hemispherical Emissivity
    0.9;                      !- Conductivity

WindowMaterial:Glazing,   
    CLEAR 6MM,                !- Name
    SpectralAverage,          !- Optical Data Type
    ,                         !- Window Glass Spectral Data Set Name
    0.006,                    !- Thickness
    0.775,                    !- Solar Transmittance at Normal Incidence
    0.071,                    !- Front Side Solar Reflectance at Normal Incidence
    0.071,                    !- Back Side Solar Reflectance at Normal Incidence
    0.881,                    !- Visible Transmittance at Normal Incidence
    0.08,                     !- Front Side Visible Reflectance at Normal Incidence
    0.08,                     !- Back Side Visible Reflectance at Normal Incidence
    0.0,                      !- Infrared Transmittance at Normal Incidence
    0.84,                     !- Front Side Infrared Hemispherical Emissivity
    0.84,                     !- Back Side Infrared Hemispherical Emissivity
    0.9;                      !- Conductivity

WindowMaterial:Glazing,   
    LoE CLEAR 6MM,            !- Name
    SpectralAverage,          !- Optical Data Type
    ,                         !- Window Glass Spectral Data Set Name
    0.006,                    !- Thickness
    0.6,                      !- Solar Transmittance at Normal Incidence
    0.17,                     !- Front Side Solar Reflectance at Normal Incidence
    0.22,                     !- Back Side Solar Reflectance at Normal Incidence
    0.84,                     !- Visible Transmittance at Normal Incidence
    0.055,                    !- Front Side Visible Reflectance at Normal Incidence
    0.078,                    !- Back Side Visible Reflectance at Normal Incidence
    0.0,                      !- Infrared Transmittance at Normal Incidence
    0.84,                     !- Front Side Infrared Hemispherical Emissivity
    0.1,                      !- Back Side Infrared Hemispherical Emissivity
    0.9;                      !- Conductivity

WindowMaterial:Gas,       
    AIR 6MM,                  !- Name
    Air,                      !- Gas Type
    0.0063;                   !- Thickness

WindowMaterial:Gas,       
    AIR 13MM,                 !- Name
    Air,                      !- Gas Type
    0.0127;                   !- Thickness

WindowMaterial:Gas,       
    ARGON 13MM,               !- Name
    Argon,                    !- Gas Type
    0.0127;                   !- Thickness

Construction,             